1



                                 *********************************************

                                    NUMERICAL ELECTROMAGNETICS CODE (NEC-2D)

                                 *********************************************




                                     - - - - COMMENTS - - - -


                                                                                                     
                          forw: 80, 90 ; back:-80, 90                                                
                                                                                                     




                                 - - - STRUCTURE SPECIFICATION - - -

                                     COORDINATES MUST BE INPUT IN
                                     METERS OR BE SCALED TO METERS
                                     BEFORE STRUCTURE INPUT IS ENDED


  WIRE                                                                               NO. OF    FIRST  LAST     TAG
  NO.        X1         Y1         Z1          X2         Y2         Z2      RADIUS   SEG.     SEG.   SEG.     NO.
     1    0.00000    0.00000    9.00000     0.16882    0.00000    8.91583    0.00032     20        1    20       1
     2    0.16882    0.00000    8.91583     0.00000    0.00000    8.83166    0.00032     20       21    40       2
     3    0.00000    0.00000    8.83166    -0.16882    0.00000    8.91583    0.00032     20       41    60       3
     4   -0.16882    0.00000    8.91583     0.00000    0.00000    9.00000    0.00032     20       61    80       4

   GROUND PLANE SPECIFIED.

   WHERE WIRE ENDS TOUCH GROUND, CURRENT WILL BE INTERPOLATED TO IMAGE IN GROUND PLANE.


   TOTAL SEGMENTS USED=   80     NO. SEG. IN A SYMMETRIC CELL=   80     SYMMETRY FLAG=  0


         - MULTIPLE WIRE JUNCTIONS -
 JUNCTION    SEGMENTS  (- FOR END 1, + FOR END 2)
  NONE




                                 - - - - SEGMENTATION DATA - - - -

                                        COORDINATES IN METERS

                         I+ AND I- INDICATE THE SEGMENTS BEFORE AND AFTER I


  SEG.   COORDINATES OF SEG. CENTER     SEG.     ORIENTATION ANGLES    WIRE    CONNECTION DATA   TAG
  NO.       X         Y         Z       LENGTH     ALPHA     BETA      RADIUS    I-   I    I+    NO.
     1   0.00422   0.00000   8.99790   0.00943  -26.49999   0.00000   0.00032    80    1    2      1
     2   0.01266   0.00000   8.99369   0.00943  -26.49999   0.00000   0.00032     1    2    3      1
     3   0.02110   0.00000   8.98948   0.00943  -26.49999   0.00000   0.00032     2    3    4      1
     4   0.02954   0.00000   8.98527   0.00943  -26.49999   0.00000   0.00032     3    4    5      1
     5   0.03798   0.00000   8.98106   0.00943  -26.49999   0.00000   0.00032     4    5    6      1
     6   0.04642   0.00000   8.97685   0.00943  -26.49999   0.00000   0.00032     5    6    7      1
     7   0.05487   0.00000   8.97265   0.00943  -26.49999   0.00000   0.00032     6    7    8      1
     8   0.06331   0.00000   8.96844   0.00943  -26.49999   0.00000   0.00032     7    8    9      1
     9   0.07175   0.00000   8.96423   0.00943  -26.49999   0.00000   0.00032     8    9   10      1
    10   0.08019   0.00000   8.96002   0.00943  -26.49999   0.00000   0.00032     9   10   11      1
    11   0.08863   0.00000   8.95581   0.00943  -26.49999   0.00000   0.00032    10   11   12      1
    12   0.09707   0.00000   8.95160   0.00943  -26.49999   0.00000   0.00032    11   12   13      1
    13   0.10551   0.00000   8.94739   0.00943  -26.49999   0.00000   0.00032    12   13   14      1
    14   0.11395   0.00000   8.94319   0.00943  -26.49999   0.00000   0.00032    13   14   15      1
    15   0.12239   0.00000   8.93898   0.00943  -26.49999   0.00000   0.00032    14   15   16      1
    16   0.13083   0.00000   8.93477   0.00943  -26.49999   0.00000   0.00032    15   16   17      1
    17   0.13927   0.00000   8.93056   0.00943  -26.49999   0.00000   0.00032    16   17   18      1
    18   0.14771   0.00000   8.92635   0.00943  -26.49999   0.00000   0.00032    17   18   19      1
    19   0.15615   0.00000   8.92214   0.00943  -26.49999   0.00000   0.00032    18   19   20      1
    20   0.16460   0.00000   8.91794   0.00943  -26.49999   0.00000   0.00032    19   20   21      1
    21   0.16460   0.00000   8.91373   0.00943  -26.50001 180.00000   0.00032    20   21   22      2
    22   0.15615   0.00000   8.90952   0.00943  -26.50001 180.00000   0.00032    21   22   23      2
    23   0.14771   0.00000   8.90531   0.00943  -26.50001 180.00000   0.00032    22   23   24      2
    24   0.13927   0.00000   8.90110   0.00943  -26.50001 180.00000   0.00032    23   24   25      2
    25   0.13083   0.00000   8.89689   0.00943  -26.50001 180.00000   0.00032    24   25   26      2
    26   0.12239   0.00000   8.89269   0.00943  -26.50001 180.00000   0.00032    25   26   27      2
    27   0.11395   0.00000   8.88848   0.00943  -26.50001 180.00000   0.00032    26   27   28      2
    28   0.10551   0.00000   8.88427   0.00943  -26.50001 180.00000   0.00032    27   28   29      2
    29   0.09707   0.00000   8.88006   0.00943  -26.50001 180.00000   0.00032    28   29   30      2
    30   0.08863   0.00000   8.87585   0.00943  -26.50001 180.00000   0.00032    29   30   31      2
    31   0.08019   0.00000   8.87164   0.00943  -26.50001 180.00000   0.00032    30   31   32      2
    32   0.07175   0.00000   8.86743   0.00943  -26.50001 180.00000   0.00032    31   32   33      2
    33   0.06331   0.00000   8.86323   0.00943  -26.50001 180.00000   0.00032    32   33   34      2
    34   0.05487   0.00000   8.85902   0.00943  -26.50001 180.00000   0.00032    33   34   35      2
    35   0.04642   0.00000   8.85481   0.00943  -26.50001 180.00000   0.00032    34   35   36      2
    36   0.03798   0.00000   8.85060   0.00943  -26.50001 180.00000   0.00032    35   36   37      2
    37   0.02954   0.00000   8.84639   0.00943  -26.50001 180.00000   0.00032    36   37   38      2
    38   0.02110   0.00000   8.84218   0.00943  -26.50001 180.00000   0.00032    37   38   39      2
    39   0.01266   0.00000   8.83798   0.00943  -26.50001 180.00000   0.00032    38   39   40      2
    40   0.00422   0.00000   8.83377   0.00943  -26.50001 180.00000   0.00032    39   40   41      2
    41  -0.00422   0.00000   8.83377   0.00943   26.50004 180.00000   0.00032    40   41   42      3
    42  -0.01266   0.00000   8.83798   0.00943   26.50004 180.00000   0.00032    41   42   43      3
    43  -0.02110   0.00000   8.84218   0.00943   26.50004 180.00000   0.00032    42   43   44      3
    44  -0.02954   0.00000   8.84639   0.00943   26.50004 180.00000   0.00032    43   44   45      3
    45  -0.03798   0.00000   8.85060   0.00943   26.50004 180.00000   0.00032    44   45   46      3
    46  -0.04642   0.00000   8.85481   0.00943   26.50004 180.00000   0.00032    45   46   47      3
    47  -0.05487   0.00000   8.85902   0.00943   26.50004 180.00000   0.00032    46   47   48      3
    48  -0.06331   0.00000   8.86323   0.00943   26.50004 180.00000   0.00032    47   48   49      3
    49  -0.07175   0.00000   8.86743   0.00943   26.50004 180.00000   0.00032    48   49   50      3
    50  -0.08019   0.00000   8.87164   0.00943   26.50004 180.00000   0.00032    49   50   51      3
    51  -0.08863   0.00000   8.87585   0.00943   26.50004 180.00000   0.00032    50   51   52      3
    52  -0.09707   0.00000   8.88006   0.00943   26.50004 180.00000   0.00032    51   52   53      3
    53  -0.10551   0.00000   8.88427   0.00943   26.50004 180.00000   0.00032    52   53   54      3
    54  -0.11395   0.00000   8.88848   0.00943   26.50004 180.00000   0.00032    53   54   55      3
    55  -0.12239   0.00000   8.89269   0.00943   26.50004 180.00000   0.00032    54   55   56      3
    56  -0.13083   0.00000   8.89689   0.00943   26.50004 180.00000   0.00032    55   56   57      3
    57  -0.13927   0.00000   8.90110   0.00943   26.50004 180.00000   0.00032    56   57   58      3
    58  -0.14771   0.00000   8.90531   0.00943   26.50004 180.00000   0.00032    57   58   59      3
    59  -0.15615   0.00000   8.90952   0.00943   26.50004 180.00000   0.00032    58   59   60      3
    60  -0.16460   0.00000   8.91373   0.00943   26.50004 180.00000   0.00032    59   60   61      3
    61  -0.16460   0.00000   8.91794   0.00943   26.50001   0.00000   0.00032    60   61   62      4
    62  -0.15615   0.00000   8.92214   0.00943   26.50001   0.00000   0.00032    61   62   63      4
    63  -0.14771   0.00000   8.92635   0.00943   26.50001   0.00000   0.00032    62   63   64      4
    64  -0.13927   0.00000   8.93056   0.00943   26.50001   0.00000   0.00032    63   64   65      4
    65  -0.13083   0.00000   8.93477   0.00943   26.50001   0.00000   0.00032    64   65   66      4
    66  -0.12239   0.00000   8.93898   0.00943   26.50001   0.00000   0.00032    65   66   67      4
    67  -0.11395   0.00000   8.94319   0.00943   26.50001   0.00000   0.00032    66   67   68      4
    68  -0.10551   0.00000   8.94739   0.00943   26.50001   0.00000   0.00032    67   68   69      4
    69  -0.09707   0.00000   8.95160   0.00943   26.50001   0.00000   0.00032    68   69   70      4
    70  -0.08863   0.00000   8.95581   0.00943   26.50001   0.00000   0.00032    69   70   71      4
    71  -0.08019   0.00000   8.96002   0.00943   26.50001   0.00000   0.00032    70   71   72      4
    72  -0.07175   0.00000   8.96423   0.00943   26.50001   0.00000   0.00032    71   72   73      4
    73  -0.06331   0.00000   8.96844   0.00943   26.50001   0.00000   0.00032    72   73   74      4
    74  -0.05487   0.00000   8.97265   0.00943   26.50001   0.00000   0.00032    73   74   75      4
    75  -0.04642   0.00000   8.97685   0.00943   26.50001   0.00000   0.00032    74   75   76      4
    76  -0.03798   0.00000   8.98106   0.00943   26.50001   0.00000   0.00032    75   76   77      4
    77  -0.02954   0.00000   8.98527   0.00943   26.50001   0.00000   0.00032    76   77   78      4
    78  -0.02110   0.00000   8.98948   0.00943   26.50001   0.00000   0.00032    77   78   79      4
    79  -0.01266   0.00000   8.99369   0.00943   26.50001   0.00000   0.00032    78   79   80      4
    80  -0.00422   0.00000   8.99790   0.00943   26.50001   0.00000   0.00032    79   80    1      4






 ***** DATA CARD NO.  1   LD   5     0     0     0  5.80000E+07  0.00000E+00  0.00000E+00  0.00000E+00  0.00000E+00  0.00000E+00
 ***** DATA CARD NO.  2   GN   2     0     0     0  5.00000E+00  1.00000E-03  0.00000E+00  0.00000E+00  0.00000E+00  0.00000E+00
 ***** DATA CARD NO.  3   EK   0     0     0     0  0.00000E+00  0.00000E+00  0.00000E+00  0.00000E+00  0.00000E+00  0.00000E+00
 ***** DATA CARD NO.  4   EX   0     1    20     0  1.00000E+00  0.00000E+00  0.00000E+00  0.00000E+00  0.00000E+00  0.00000E+00
 ***** DATA CARD NO.  5   EX   0     2     1     0  1.00000E+00  0.00000E+00  0.00000E+00  0.00000E+00  0.00000E+00  0.00000E+00
 ***** DATA CARD NO.  6   FR   0     0     0     0  4.35000E+02  0.00000E+00  0.00000E+00  0.00000E+00  0.00000E+00  0.00000E+00
 ***** DATA CARD NO.  7   XQ   0     0     0     0  0.00000E+00  0.00000E+00  0.00000E+00  0.00000E+00  0.00000E+00  0.00000E+00




                                 - - - - - - FREQUENCY - - - - - -

                                    FREQUENCY= 4.3500E+02 MHZ
                                    WAVELENGTH= 6.8920E-01 METERS




                    APPROXIMATE INTEGRATION EMPLOYED FOR SEGMENTS MORE THAN   1.000 WAVELENGTHS APART

                    THE EXTENDED THIN WIRE KERNEL WILL BE USED



                               - - - STRUCTURE IMPEDANCE LOADING - - -


       LOCATION          RESISTANCE   INDUCTANCE  CAPACITANCE       IMPEDANCE (OHMS)     CONDUCTIVITY    TYPE
    ITAG FROM THRU          OHMS        HENRYS       FARADS        REAL      IMAGINARY    MHOS/METER

     ALL                                                                                 5.8000E+07     WIRE  



                                  - - - ANTENNA ENVIRONMENT - - -

                                        FINITE GROUND.  SOMMERFELD SOLUTION
                                        RELATIVE DIELECTRIC CONST.=  5.000
                                        CONDUCTIVITY= 1.000E-03 MHOS/METER
                                        COMPLEX DIELECTRIC CONSTANT= 5.00000E+00-4.13242E-02



                                - - - MATRIX TIMING - - -

                        FILL=    0.047 SEC.,  FACTOR=    0.000 SEC.



                                          - - - ANTENNA INPUT PARAMETERS - - -

   TAG   SEG.    VOLTAGE (VOLTS)         CURRENT (AMPS)         IMPEDANCE (OHMS)        ADMITTANCE (MHOS)      POWER
   NO.   NO.    REAL        IMAG.       REAL        IMAG.       REAL        IMAG.       REAL        IMAG.     (WATTS)
     1    20 1.00000E+00 0.00000E+00 4.00263E-02 1.60721E-05 2.49836E+01-1.00319E-02 4.00263E-02 1.60721E-05 2.00131E-02
     2    21 1.00000E+00 0.00000E+00 4.00262E-02 1.62098E-05 2.49837E+01-1.01179E-02 4.00262E-02 1.62098E-05 2.00131E-02



                             - - - CURRENTS AND LOCATION - - -

                                 DISTANCES IN WAVELENGTHS


  SEG.  TAG    COORD. OF SEG. CENTER     SEG.            - - - CURRENT (AMPS) - - -
  NO.   NO.     X        Y        Z      LENGTH     REAL        IMAG.       MAG.        PHASE
     1    1   0.0061   0.0000  13.0557  0.01369   1.5796E-03 -1.4914E-03  2.1724E-03  -43.354
     2    1   0.0184   0.0000  13.0495  0.01369   4.6850E-03 -1.6541E-03  4.9684E-03  -19.446
     3    1   0.0306   0.0000  13.0434  0.01369   7.7774E-03 -1.7910E-03  7.9809E-03  -12.968
     4    1   0.0429   0.0000  13.0373  0.01369   1.0834E-02 -1.9024E-03  1.1000E-02   -9.959
     5    1   0.0551   0.0000  13.0312  0.01369   1.3832E-02 -1.9879E-03  1.3974E-02   -8.178
     6    1   0.0674   0.0000  13.0251  0.01369   1.6752E-02 -2.0473E-03  1.6876E-02   -6.968
     7    1   0.0796   0.0000  13.0190  0.01369   1.9572E-02 -2.0803E-03  1.9682E-02   -6.067
     8    1   0.0919   0.0000  13.0129  0.01369   2.2273E-02 -2.0865E-03  2.2371E-02   -5.352
     9    1   0.1041   0.0000  13.0068  0.01369   2.4838E-02 -2.0659E-03  2.4923E-02   -4.755
    10    1   0.1163   0.0000  13.0007  0.01369   2.7247E-02 -2.0184E-03  2.7322E-02   -4.237
    11    1   0.1286   0.0000  12.9946  0.01369   2.9486E-02 -1.9441E-03  2.9551E-02   -3.772
    12    1   0.1408   0.0000  12.9885  0.01369   3.1540E-02 -1.8430E-03  3.1594E-02   -3.344
    13    1   0.1531   0.0000  12.9824  0.01369   3.3394E-02 -1.7152E-03  3.3439E-02   -2.940
    14    1   0.1653   0.0000  12.9763  0.01369   3.5038E-02 -1.5607E-03  3.5073E-02   -2.551
    15    1   0.1776   0.0000  12.9702  0.01369   3.6461E-02 -1.3793E-03  3.6487E-02   -2.166
    16    1   0.1898   0.0000  12.9641  0.01369   3.7653E-02 -1.1701E-03  3.7671E-02   -1.780
    17    1   0.2021   0.0000  12.9580  0.01369   3.8609E-02 -9.3124E-04  3.8621E-02   -1.382
    18    1   0.2143   0.0000  12.9518  0.01369   3.9324E-02 -6.5796E-04  3.9330E-02   -0.959
    19    1   0.2266   0.0000  12.9457  0.01369   3.9796E-02 -3.3497E-04  3.9797E-02   -0.482
    20    1   0.2388   0.0000  12.9396  0.01369   4.0026E-02  1.6072E-05  4.0026E-02    0.023
    21    2   0.2388   0.0000  12.9335  0.01369   4.0026E-02  1.6210E-05  4.0026E-02    0.023
    22    2   0.2266   0.0000  12.9274  0.01369   3.9796E-02 -3.3456E-04  3.9797E-02   -0.482
    23    2   0.2143   0.0000  12.9213  0.01369   3.9324E-02 -6.5727E-04  3.9329E-02   -0.958
    24    2   0.2021   0.0000  12.9152  0.01369   3.8609E-02 -9.3026E-04  3.8620E-02   -1.380
    25    2   0.1898   0.0000  12.9091  0.01369   3.7652E-02 -1.1689E-03  3.7671E-02   -1.778
    26    2   0.1776   0.0000  12.9030  0.01369   3.6460E-02 -1.3778E-03  3.6486E-02   -2.164
    27    2   0.1653   0.0000  12.8969  0.01369   3.5037E-02 -1.5590E-03  3.5072E-02   -2.548
    28    2   0.1531   0.0000  12.8908  0.01369   3.3393E-02 -1.7132E-03  3.3437E-02   -2.937
    29    2   0.1408   0.0000  12.8847  0.01369   3.1539E-02 -1.8407E-03  3.1592E-02   -3.340
    30    2   0.1286   0.0000  12.8786  0.01369   2.9485E-02 -1.9415E-03  2.9549E-02   -3.767
    31    2   0.1163   0.0000  12.8725  0.01369   2.7246E-02 -2.0157E-03  2.7320E-02   -4.231
    32    2   0.1041   0.0000  12.8664  0.01369   2.4836E-02 -2.0629E-03  2.4922E-02   -4.748
    33    2   0.0919   0.0000  12.8603  0.01369   2.2272E-02 -2.0834E-03  2.2369E-02   -5.344
    34    2   0.0796   0.0000  12.8541  0.01369   1.9570E-02 -2.0770E-03  1.9680E-02   -6.058
    35    2   0.0674   0.0000  12.8480  0.01369   1.6750E-02 -2.0439E-03  1.6874E-02   -6.957
    36    2   0.0551   0.0000  12.8419  0.01369   1.3830E-02 -1.9844E-03  1.3972E-02   -8.165
    37    2   0.0429   0.0000  12.8358  0.01369   1.0832E-02 -1.8987E-03  1.0997E-02   -9.942
    38    2   0.0306   0.0000  12.8297  0.01369   7.7753E-03 -1.7872E-03  7.9780E-03  -12.945
    39    2   0.0184   0.0000  12.8236  0.01369   4.6828E-03 -1.6503E-03  4.9651E-03  -19.413
    40    2   0.0061   0.0000  12.8175  0.01369   1.5775E-03 -1.4875E-03  2.1683E-03  -43.318
    41    3  -0.0061   0.0000  12.8175  0.01369  -1.5214E-03 -1.3014E-03  2.0021E-03 -139.455
    42    3  -0.0184   0.0000  12.8236  0.01369  -4.6265E-03 -1.1179E-03  4.7596E-03 -166.416
    43    3  -0.0306   0.0000  12.8297  0.01369  -7.7186E-03 -9.3911E-04  7.7755E-03 -173.063
    44    3  -0.0429   0.0000  12.8358  0.01369  -1.0775E-02 -7.6496E-04  1.0802E-02 -175.939
    45    3  -0.0551   0.0000  12.8419  0.01369  -1.3772E-02 -5.9589E-04  1.3785E-02 -177.523
    46    3  -0.0674   0.0000  12.8480  0.01369  -1.6691E-02 -4.3257E-04  1.6697E-02 -178.515
    47    3  -0.0796   0.0000  12.8541  0.01369  -1.9511E-02 -2.7575E-04  1.9513E-02 -179.190
    48    3  -0.0919   0.0000  12.8603  0.01369  -2.2212E-02 -1.2620E-04  2.2212E-02 -179.674
    49    3  -0.1041   0.0000  12.8664  0.01369  -2.4775E-02  1.5312E-05  2.4775E-02  179.965
    50    3  -0.1163   0.0000  12.8725  0.01369  -2.7184E-02  1.4805E-04  2.7185E-02  179.688
    51    3  -0.1286   0.0000  12.8786  0.01369  -2.9423E-02  2.7131E-04  2.9424E-02  179.472
    52    3  -0.1408   0.0000  12.8847  0.01369  -3.1475E-02  3.8444E-04  3.1478E-02  179.300
    53    3  -0.1531   0.0000  12.8908  0.01369  -3.3329E-02  4.8684E-04  3.3333E-02  179.163
    54    3  -0.1653   0.0000  12.8969  0.01369  -3.4972E-02  5.7799E-04  3.4977E-02  179.053
    55    3  -0.1776   0.0000  12.9030  0.01369  -3.6394E-02  6.5739E-04  3.6400E-02  178.965
    56    3  -0.1898   0.0000  12.9091  0.01369  -3.7586E-02  7.2465E-04  3.7593E-02  178.896
    57    3  -0.2021   0.0000  12.9152  0.01369  -3.8542E-02  7.7939E-04  3.8550E-02  178.842
    58    3  -0.2143   0.0000  12.9213  0.01369  -3.9257E-02  8.2130E-04  3.9265E-02  178.801
    59    3  -0.2266   0.0000  12.9274  0.01369  -3.9728E-02  8.5005E-04  3.9737E-02  178.774
    60    3  -0.2388   0.0000  12.9335  0.01369  -3.9959E-02  8.6506E-04  3.9968E-02  178.760
    61    4  -0.2388   0.0000  12.9396  0.01369  -3.9959E-02  8.6491E-04  3.9968E-02  178.760
    62    4  -0.2266   0.0000  12.9457  0.01369  -3.9728E-02  8.4961E-04  3.9737E-02  178.775
    63    4  -0.2143   0.0000  12.9518  0.01369  -3.9256E-02  8.2056E-04  3.9265E-02  178.803
    64    4  -0.2021   0.0000  12.9580  0.01369  -3.8542E-02  7.7836E-04  3.8549E-02  178.843
    65    4  -0.1898   0.0000  12.9641  0.01369  -3.7586E-02  7.2332E-04  3.7593E-02  178.897
    66    4  -0.1776   0.0000  12.9702  0.01369  -3.6393E-02  6.5579E-04  3.6399E-02  178.968
    67    4  -0.1653   0.0000  12.9763  0.01369  -3.4971E-02  5.7611E-04  3.4976E-02  179.056
    68    4  -0.1531   0.0000  12.9824  0.01369  -3.3328E-02  4.8470E-04  3.3332E-02  179.167
    69    4  -0.1408   0.0000  12.9885  0.01369  -3.1474E-02  3.8205E-04  3.1476E-02  179.305
    70    4  -0.1286   0.0000  12.9946  0.01369  -2.9421E-02  2.6868E-04  2.9422E-02  179.477
    71    4  -0.1163   0.0000  13.0007  0.01369  -2.7183E-02  1.4520E-04  2.7183E-02  179.694
    72    4  -0.1041   0.0000  13.0068  0.01369  -2.4774E-02  1.2264E-05  2.4774E-02  179.972
    73    4  -0.0919   0.0000  13.0129  0.01369  -2.2210E-02 -1.2943E-04  2.2210E-02 -179.666
    74    4  -0.0796   0.0000  13.0190  0.01369  -1.9509E-02 -2.7914E-04  1.9511E-02 -179.180
    75    4  -0.0674   0.0000  13.0251  0.01369  -1.6690E-02 -4.3610E-04  1.6695E-02 -178.503
    76    4  -0.0551   0.0000  13.0312  0.01369  -1.3771E-02 -5.9953E-04  1.3784E-02 -177.507
    77    4  -0.0429   0.0000  13.0373  0.01369  -1.0773E-02 -7.6870E-04  1.0800E-02 -175.918
    78    4  -0.0306   0.0000  13.0434  0.01369  -7.7165E-03 -9.4292E-04  7.7739E-03 -173.033
    79    4  -0.0184   0.0000  13.0495  0.01369  -4.6244E-03 -1.1217E-03  4.7585E-03 -166.365
    80    4  -0.0061   0.0000  13.0557  0.01369  -1.5192E-03 -1.3053E-03  2.0030E-03 -139.332



                                        - - - POWER BUDGET - - -

                                           INPUT POWER   = 4.0026E-02 WATTS
                                           RADIATED POWER= 3.9210E-02 WATTS
                                           STRUCTURE LOSS= 8.1648E-04 WATTS
                                           NETWORK LOSS  = 0.0000E+00 WATTS
                                           EFFICIENCY    =  97.96 PERCENT






 ***** DATA CARD NO.  8   FR   0   241     0     0  4.29000E+02  5.00000E-02  0.00000E+00  0.00000E+00  0.00000E+00  0.00000E+00
 ***** DATA CARD NO.  9   RP   0    37     1  1000 -9.00000E+01  9.00000E+01  5.00000E+00  0.00000E+00  0.00000E+00  0.00000E+00




                                 - - - - - - FREQUENCY - - - - - -

                                    FREQUENCY= 4.2900E+02 MHZ
                                    WAVELENGTH= 6.9883E-01 METERS




                    APPROXIMATE INTEGRATION EMPLOYED FOR SEGMENTS MORE THAN   1.000 WAVELENGTHS APART

                    THE EXTENDED THIN WIRE KERNEL WILL BE USED



                               - - - STRUCTURE IMPEDANCE LOADING - - -


       LOCATION          RESISTANCE   INDUCTANCE  CAPACITANCE       IMPEDANCE (OHMS)     CONDUCTIVITY    TYPE
    ITAG FROM THRU          OHMS        HENRYS       FARADS        REAL      IMAGINARY    MHOS/METER

     ALL                                                                                 5.8000E+07     WIRE  



                                  - - - ANTENNA ENVIRONMENT - - -

                                        FINITE GROUND.  SOMMERFELD SOLUTION
                                        RELATIVE DIELECTRIC CONST.=  5.000
                                        CONDUCTIVITY= 1.000E-03 MHOS/METER
                                        COMPLEX DIELECTRIC CONSTANT= 5.00000E+00-4.19021E-02



                                - - - MATRIX TIMING - - -

                        FILL=    0.031 SEC.,  FACTOR=    0.000 SEC.



                                          - - - ANTENNA INPUT PARAMETERS - - -

   TAG   SEG.    VOLTAGE (VOLTS)         CURRENT (AMPS)         IMPEDANCE (OHMS)        ADMITTANCE (MHOS)      POWER
   NO.   NO.    REAL        IMAG.       REAL        IMAG.       REAL        IMAG.       REAL        IMAG.     (WATTS)
     1    20 1.00000E+00 0.00000E+00 3.10043E-02 1.83859E-02 2.38622E+01-1.41506E+01 3.10043E-02 1.83859E-02 1.55021E-02
     2    21 1.00000E+00 0.00000E+00 3.10042E-02 1.83858E-02 2.38623E+01-1.41505E+01 3.10042E-02 1.83858E-02 1.55021E-02



                             - - - CURRENTS AND LOCATION - - -

                                 DISTANCES IN WAVELENGTHS


  SEG.  TAG    COORD. OF SEG. CENTER     SEG.            - - - CURRENT (AMPS) - - -
  NO.   NO.     X        Y        Z      LENGTH     REAL        IMAG.       MAG.        PHASE
     1    1   0.0060   0.0000  12.8756  0.01350   1.2423E-03 -7.6277E-04  1.4578E-03  -31.549
     2    1   0.0181   0.0000  12.8696  0.01350   3.6674E-03  5.1744E-04  3.7037E-03    8.031
     3    1   0.0302   0.0000  12.8635  0.01350   6.0766E-03  1.8136E-03  6.3415E-03   16.618
     4    1   0.0423   0.0000  12.8575  0.01350   8.4532E-03  3.1154E-03  9.0090E-03   20.231
     5    1   0.0544   0.0000  12.8515  0.01350   1.0781E-02  4.4134E-03  1.1649E-02   22.263
     6    1   0.0664   0.0000  12.8455  0.01350   1.3044E-02  5.6986E-03  1.4234E-02   23.600
     7    1   0.0785   0.0000  12.8394  0.01350   1.5227E-02  6.9624E-03  1.6743E-02   24.572
     8    1   0.0906   0.0000  12.8334  0.01350   1.7316E-02  8.1963E-03  1.9158E-02   25.330
     9    1   0.1027   0.0000  12.8274  0.01350   1.9297E-02  9.3923E-03  2.1461E-02   25.954
    10    1   0.1147   0.0000  12.8214  0.01350   2.1157E-02  1.0543E-02  2.3638E-02   26.488
    11    1   0.1268   0.0000  12.8154  0.01350   2.2884E-02  1.1641E-02  2.5674E-02   26.962
    12    1   0.1389   0.0000  12.8093  0.01350   2.4466E-02  1.2679E-02  2.7557E-02   27.394
    13    1   0.1510   0.0000  12.8033  0.01350   2.5895E-02  1.3652E-02  2.9274E-02   27.799
    14    1   0.1631   0.0000  12.7973  0.01350   2.7161E-02  1.4555E-02  3.0815E-02   28.186
    15    1   0.1751   0.0000  12.7913  0.01350   2.8256E-02  1.5383E-02  3.2172E-02   28.565
    16    1   0.1872   0.0000  12.7852  0.01350   2.9175E-02  1.6133E-02  3.3338E-02   28.942
    17    1   0.1993   0.0000  12.7792  0.01350   2.9911E-02  1.6805E-02  3.4309E-02   29.329
    18    1   0.2114   0.0000  12.7732  0.01350   3.0462E-02  1.7401E-02  3.5082E-02   29.736
    19    1   0.2235   0.0000  12.7672  0.01350   3.0826E-02  1.7934E-02  3.5663E-02   30.191
    20    1   0.2355   0.0000  12.7612  0.01350   3.1004E-02  1.8386E-02  3.6046E-02   30.668
    21    2   0.2355   0.0000  12.7551  0.01350   3.1004E-02  1.8386E-02  3.6046E-02   30.668
    22    2   0.2235   0.0000  12.7491  0.01350   3.0826E-02  1.7934E-02  3.5663E-02   30.190
    23    2   0.2114   0.0000  12.7431  0.01350   3.0462E-02  1.7400E-02  3.5081E-02   29.735
    24    2   0.1993   0.0000  12.7371  0.01350   2.9911E-02  1.6804E-02  3.4308E-02   29.327
    25    2   0.1872   0.0000  12.7310  0.01350   2.9174E-02  1.6132E-02  3.3337E-02   28.941
    26    2   0.1751   0.0000  12.7250  0.01350   2.8256E-02  1.5381E-02  3.2171E-02   28.562
    27    2   0.1631   0.0000  12.7190  0.01350   2.7160E-02  1.4553E-02  3.0814E-02   28.183
    28    2   0.1510   0.0000  12.7130  0.01350   2.5895E-02  1.3650E-02  2.9272E-02   27.795
    29    2   0.1389   0.0000  12.7070  0.01350   2.4466E-02  1.2677E-02  2.7555E-02   27.390
    30    2   0.1268   0.0000  12.7009  0.01350   2.2883E-02  1.1638E-02  2.5672E-02   26.957
    31    2   0.1147   0.0000  12.6949  0.01350   2.1156E-02  1.0540E-02  2.3636E-02   26.482
    32    2   0.1027   0.0000  12.6889  0.01350   1.9296E-02  9.3890E-03  2.1459E-02   25.947
    33    2   0.0906   0.0000  12.6829  0.01350   1.7315E-02  8.1927E-03  1.9155E-02   25.322
    34    2   0.0785   0.0000  12.6768  0.01350   1.5226E-02  6.9586E-03  1.6741E-02   24.562
    35    2   0.0664   0.0000  12.6708  0.01350   1.3043E-02  5.6947E-03  1.4232E-02   23.587
    36    2   0.0544   0.0000  12.6648  0.01350   1.0780E-02  4.4093E-03  1.1647E-02   22.247
    37    2   0.0423   0.0000  12.6588  0.01350   8.4520E-03  3.1112E-03  9.0064E-03   20.209
    38    2   0.0302   0.0000  12.6528  0.01350   6.0754E-03  1.8094E-03  6.3391E-03   16.585
    39    2   0.0181   0.0000  12.6467  0.01350   3.6661E-03  5.1313E-04  3.7018E-03    7.968
    40    2   0.0060   0.0000  12.6407  0.01350   1.2410E-03 -7.6710E-04  1.4590E-03  -31.721
    41    3  -0.0060   0.0000  12.6407  0.01350  -1.1847E-03 -2.0247E-03  2.3458E-03 -120.332
    42    3  -0.0181   0.0000  12.6467  0.01350  -3.6096E-03 -3.2846E-03  4.8803E-03 -137.698
    43    3  -0.0302   0.0000  12.6528  0.01350  -6.0185E-03 -4.5402E-03  7.5390E-03 -142.970
    44    3  -0.0423   0.0000  12.6588  0.01350  -8.3947E-03 -5.7810E-03  1.0193E-02 -145.447
    45    3  -0.0544   0.0000  12.6648  0.01350  -1.0722E-02 -6.9979E-03  1.2804E-02 -146.868
    46    3  -0.0664   0.0000  12.6708  0.01350  -1.2984E-02 -8.1822E-03  1.5347E-02 -147.782
    47    3  -0.0785   0.0000  12.6768  0.01350  -1.5167E-02 -9.3256E-03  1.7805E-02 -148.414
    48    3  -0.0906   0.0000  12.6829  0.01350  -1.7255E-02 -1.0420E-02  2.0157E-02 -148.873
    49    3  -0.1027   0.0000  12.6889  0.01350  -1.9235E-02 -1.1458E-02  2.2390E-02 -149.218
    50    3  -0.1147   0.0000  12.6949  0.01350  -2.1095E-02 -1.2433E-02  2.4486E-02 -149.484
    51    3  -0.1268   0.0000  12.7009  0.01350  -2.2821E-02 -1.3339E-02  2.6433E-02 -149.694
    52    3  -0.1389   0.0000  12.7070  0.01350  -2.4403E-02 -1.4168E-02  2.8218E-02 -149.861
    53    3  -0.1510   0.0000  12.7130  0.01350  -2.5831E-02 -1.4917E-02  2.9829E-02 -149.994
    54    3  -0.1631   0.0000  12.7190  0.01350  -2.7096E-02 -1.5580E-02  3.1256E-02 -150.102
    55    3  -0.1751   0.0000  12.7250  0.01350  -2.8191E-02 -1.6153E-02  3.2491E-02 -150.189
    56    3  -0.1872   0.0000  12.7310  0.01350  -2.9109E-02 -1.6632E-02  3.3526E-02 -150.257
    57    3  -0.1993   0.0000  12.7371  0.01350  -2.9845E-02 -1.7016E-02  3.4355E-02 -150.311
    58    3  -0.2114   0.0000  12.7431  0.01350  -3.0396E-02 -1.7302E-02  3.4975E-02 -150.350
    59    3  -0.2235   0.0000  12.7491  0.01350  -3.0760E-02 -1.7490E-02  3.5385E-02 -150.378
    60    3  -0.2355   0.0000  12.7551  0.01350  -3.0938E-02 -1.7581E-02  3.5584E-02 -150.392
    61    4  -0.2355   0.0000  12.7612  0.01350  -3.0938E-02 -1.7581E-02  3.5584E-02 -150.392
    62    4  -0.2235   0.0000  12.7672  0.01350  -3.0760E-02 -1.7489E-02  3.5384E-02 -150.378
    63    4  -0.2114   0.0000  12.7732  0.01350  -3.0396E-02 -1.7301E-02  3.4975E-02 -150.351
    64    4  -0.1993   0.0000  12.7792  0.01350  -2.9845E-02 -1.7015E-02  3.4354E-02 -150.312
    65    4  -0.1872   0.0000  12.7852  0.01350  -2.9109E-02 -1.6631E-02  3.3525E-02 -150.259
    66    4  -0.1751   0.0000  12.7913  0.01350  -2.8191E-02 -1.6151E-02  3.2489E-02 -150.191
    67    4  -0.1631   0.0000  12.7973  0.01350  -2.7096E-02 -1.5578E-02  3.1254E-02 -150.105
    68    4  -0.1510   0.0000  12.8033  0.01350  -2.5830E-02 -1.4915E-02  2.9827E-02 -149.998
    69    4  -0.1389   0.0000  12.8093  0.01350  -2.4402E-02 -1.4166E-02  2.8216E-02 -149.864
    70    4  -0.1268   0.0000  12.8154  0.01350  -2.2820E-02 -1.3336E-02  2.6431E-02 -149.698
    71    4  -0.1147   0.0000  12.8214  0.01350  -2.1094E-02 -1.2430E-02  2.4484E-02 -149.490
    72    4  -0.1027   0.0000  12.8274  0.01350  -1.9234E-02 -1.1455E-02  2.2387E-02 -149.224
    73    4  -0.0906   0.0000  12.8334  0.01350  -1.7254E-02 -1.0417E-02  2.0155E-02 -148.880
    74    4  -0.0785   0.0000  12.8394  0.01350  -1.5166E-02 -9.3218E-03  1.7802E-02 -148.423
    75    4  -0.0664   0.0000  12.8455  0.01350  -1.2983E-02 -8.1783E-03  1.5344E-02 -147.792
    76    4  -0.0544   0.0000  12.8515  0.01350  -1.0721E-02 -6.9938E-03  1.2800E-02 -146.881
    77    4  -0.0423   0.0000  12.8575  0.01350  -8.3934E-03 -5.7768E-03  1.0189E-02 -145.462
    78    4  -0.0302   0.0000  12.8635  0.01350  -6.0172E-03 -4.5359E-03  7.5353E-03 -142.990
    79    4  -0.0181   0.0000  12.8696  0.01350  -3.6082E-03 -3.2803E-03  4.8764E-03 -137.725
    80    4  -0.0060   0.0000  12.8756  0.01350  -1.1833E-03 -2.0203E-03  2.3414E-03 -120.358



                                        - - - POWER BUDGET - - -

                                           INPUT POWER   = 3.1004E-02 WATTS
                                           RADIATED POWER= 3.0365E-02 WATTS
                                           STRUCTURE LOSS= 6.3927E-04 WATTS
                                           NETWORK LOSS  = 0.0000E+00 WATTS
                                           EFFICIENCY    =  97.94 PERCENT



                                                - - - RADIATION PATTERNS - - -

  - - ANGLES - -           - POWER GAINS -       - - - POLARIZATION - - -    - - - E(THETA) - - -    - - - E(PHI) - - -
  THETA     PHI        VERT.   HOR.    TOTAL      AXIAL     TILT   SENSE     MAGNITUDE    PHASE      MAGNITUDE    PHASE 
 DEGREES  DEGREES       DB      DB      DB        RATIO     DEG.              VOLTS/M    DEGREES      VOLTS/M    DEGREES
  -90.00    90.00    -178.19 -999.99 -178.19    0.00031    -0.01  RIGHT     1.68007E-09    27.24    5.53683E-13   -81.21
  -85.00    90.00       4.31  -43.52    4.31    0.00399    -0.04  RIGHT     2.24004E+00  -165.35    9.08725E-03    94.54
  -80.00    90.00       6.14  -48.56    6.14    0.00184     0.01  RIGHT     2.76309E+00  -156.38    5.08669E-03   116.50
  -75.00    90.00       4.67  -41.10    4.67    0.00255     0.26  LEFT      2.33402E+00  -138.63    1.20152E-02  -108.92
  -70.00    90.00       3.11  -33.47    3.11    0.00394     0.82  LEFT      1.94991E+00  -114.84    2.89194E-02   -99.42
  -65.00    90.00       2.66  -30.53    2.66    0.00044     1.25  LEFT      1.85210E+00   -99.01    4.05784E-02   -97.87
  -60.00    90.00       2.28  -29.86    2.29    0.00098     1.41  RIGHT     1.77337E+00   -99.06    4.38142E-02  -101.33
  -55.00    90.00       0.80  -32.64    0.80    0.00020     1.22  RIGHT     1.49418E+00  -118.89    3.18318E-02  -119.43
  -50.00    90.00      -0.50  -33.25   -0.50    0.01683     0.90  RIGHT     1.28699E+00  -176.93    2.96429E-02   136.10
  -45.00    90.00       2.19  -25.15    2.20    0.02101     2.14  RIGHT     1.75516E+00   123.60    7.53172E-02    94.24
  -40.00    90.00      -3.24  -32.85   -3.24    0.01088     1.79  RIGHT     9.38824E-01    43.95    3.10408E-02    24.71
  -35.00    90.00       0.46  -24.52    0.47    0.02348     2.93  RIGHT     1.43685E+00   -70.58    8.10104E-02   -95.26
  -30.00    90.00      -0.65  -24.21   -0.63    0.03228     3.32  RIGHT     1.26469E+00   128.05    8.39781E-02    98.86
  -25.00    90.00      -2.25  -24.17   -2.23    0.03864     4.02  RIGHT     1.05182E+00   -49.60    8.43738E-02   -78.56
  -20.00    90.00      -3.53  -23.39   -3.48    0.04597     5.17  RIGHT     9.08623E-01   117.07    9.22597E-02    89.91
  -15.00    90.00     -10.22  -27.73  -10.14    0.05684     6.87  RIGHT     4.20413E-01  -103.68    5.59807E-02  -129.34
  -10.00    90.00      -9.91  -23.71   -9.73    0.09151    10.35  RIGHT     4.35644E-01   -50.05    8.89911E-02   -77.62
   -5.00    90.00     -21.32  -29.11  -20.65    0.16417    20.51  RIGHT     1.17180E-01    -0.88    4.77872E-02   -28.09
    0.00    90.00    -999.99  -29.95  -29.95    0.00000    90.00  LINEAR    2.21383E-13     8.71    4.33794E-02     8.71
    5.00    90.00     -21.32  -29.11  -20.65    0.16417   -20.51  LEFT      1.17180E-01   179.12    4.77872E-02   -28.09
   10.00    90.00      -9.91  -23.71   -9.73    0.09151   -10.35  LEFT      4.35644E-01   129.95    8.89911E-02   -77.62
   15.00    90.00     -10.22  -27.73  -10.14    0.05684    -6.87  LEFT      4.20413E-01    76.32    5.59807E-02  -129.34
   20.00    90.00      -3.53  -23.39   -3.48    0.04597    -5.17  LEFT      9.08623E-01   -62.93    9.22597E-02    89.91
   25.00    90.00      -2.25  -24.17   -2.23    0.03864    -4.02  LEFT      1.05182E+00   130.40    8.43738E-02   -78.56
   30.00    90.00      -0.65  -24.21   -0.63    0.03228    -3.32  LEFT      1.26469E+00   -51.95    8.39781E-02    98.86
   35.00    90.00       0.46  -24.52    0.47    0.02348    -2.93  LEFT      1.43685E+00   109.42    8.10104E-02   -95.26
   40.00    90.00      -3.24  -32.85   -3.24    0.01088    -1.79  LEFT      9.38824E-01  -136.05    3.10408E-02    24.71
   45.00    90.00       2.19  -25.15    2.20    0.02101    -2.14  LEFT      1.75516E+00   -56.40    7.53172E-02    94.24
   50.00    90.00      -0.50  -33.25   -0.50    0.01683    -0.90  LEFT      1.28699E+00     3.07    2.96429E-02   136.10
   55.00    90.00       0.80  -32.64    0.80    0.00020    -1.22  LEFT      1.49418E+00    61.11    3.18318E-02  -119.43
   60.00    90.00       2.28  -29.86    2.29    0.00098    -1.41  LEFT      1.77337E+00    80.94    4.38142E-02  -101.33
   65.00    90.00       2.66  -30.53    2.66    0.00044    -1.25  RIGHT     1.85210E+00    80.99    4.05784E-02   -97.87
   70.00    90.00       3.11  -33.47    3.11    0.00394    -0.82  RIGHT     1.94991E+00    65.16    2.89194E-02   -99.42
   75.00    90.00       4.67  -41.10    4.67    0.00255    -0.26  RIGHT     2.33402E+00    41.37    1.20152E-02  -108.92
   80.00    90.00       6.14  -48.56    6.14    0.00184    -0.01  LEFT      2.76309E+00    23.62    5.08669E-03   116.50
   85.00    90.00       4.31  -43.52    4.31    0.00399     0.04  LEFT      2.24004E+00    14.65    9.08725E-03    94.54
   90.00    90.00    -178.19 -999.99 -178.19    0.00031     0.01  LEFT      1.68007E-09  -152.76    5.53920E-13   -81.23




                                 - - - - - - FREQUENCY - - - - - -

                                    FREQUENCY= 4.2905E+02 MHZ
                                    WAVELENGTH= 6.9875E-01 METERS




                    APPROXIMATE INTEGRATION EMPLOYED FOR SEGMENTS MORE THAN   1.000 WAVELENGTHS APART

                    THE EXTENDED THIN WIRE KERNEL WILL BE USED



                               - - - STRUCTURE IMPEDANCE LOADING - - -


       LOCATION          RESISTANCE   INDUCTANCE  CAPACITANCE       IMPEDANCE (OHMS)     CONDUCTIVITY    TYPE
    ITAG FROM THRU          OHMS        HENRYS       FARADS        REAL      IMAGINARY    MHOS/METER

     ALL                                                                                 5.8000E+07     WIRE  



                                  - - - ANTENNA ENVIRONMENT - - -

                                        FINITE GROUND.  SOMMERFELD SOLUTION
                                        RELATIVE DIELECTRIC CONST.=  5.000
                                        CONDUCTIVITY= 1.000E-03 MHOS/METER
                                        COMPLEX DIELECTRIC CONSTANT= 5.00000E+00-4.18972E-02



                                - - - MATRIX TIMING - - -

                        FILL=    0.047 SEC.,  FACTOR=    0.000 SEC.



                                          - - - ANTENNA INPUT PARAMETERS - - -

   TAG   SEG.    VOLTAGE (VOLTS)         CURRENT (AMPS)         IMPEDANCE (OHMS)        ADMITTANCE (MHOS)      POWER
   NO.   NO.    REAL        IMAG.       REAL        IMAG.       REAL        IMAG.       REAL        IMAG.     (WATTS)
     1    20 1.00000E+00 0.00000E+00 3.11321E-02 1.83023E-02 2.38710E+01-1.40336E+01 3.11321E-02 1.83023E-02 1.55660E-02
     2    21 1.00000E+00 0.00000E+00 3.11320E-02 1.83021E-02 2.38712E+01-1.40335E+01 3.11320E-02 1.83021E-02 1.55660E-02



                             - - - CURRENTS AND LOCATION - - -

                                 DISTANCES IN WAVELENGTHS


  SEG.  TAG    COORD. OF SEG. CENTER     SEG.            - - - CURRENT (AMPS) - - -
  NO.   NO.     X        Y        Z      LENGTH     REAL        IMAG.       MAG.        PHASE
     1    1   0.0060   0.0000  12.8771  0.01350   1.2473E-03 -7.6616E-04  1.4638E-03  -31.561
     2    1   0.0181   0.0000  12.8711  0.01350   3.6822E-03  5.0736E-04  3.7170E-03    7.845
     3    1   0.0302   0.0000  12.8650  0.01350   6.1012E-03  1.7969E-03  6.3603E-03   16.411
     4    1   0.0423   0.0000  12.8590  0.01350   8.4875E-03  3.0922E-03  9.0333E-03   20.018
     5    1   0.0544   0.0000  12.8530  0.01350   1.0825E-02  4.3839E-03  1.1679E-02   22.047
     6    1   0.0664   0.0000  12.8470  0.01350   1.3097E-02  5.6629E-03  1.4269E-02   23.383
     7    1   0.0785   0.0000  12.8409  0.01350   1.5289E-02  6.9208E-03  1.6783E-02   24.354
     8    1   0.0906   0.0000  12.8349  0.01350   1.7387E-02  8.1491E-03  1.9202E-02   25.112
     9    1   0.1027   0.0000  12.8289  0.01350   1.9376E-02  9.3398E-03  2.1509E-02   25.735
    10    1   0.1148   0.0000  12.8229  0.01350   2.1244E-02  1.0485E-02  2.3690E-02   26.270
    11    1   0.1268   0.0000  12.8168  0.01350   2.2978E-02  1.1578E-02  2.5730E-02   26.744
    12    1   0.1389   0.0000  12.8108  0.01350   2.4567E-02  1.2613E-02  2.7616E-02   27.176
    13    1   0.1510   0.0000  12.8048  0.01350   2.6002E-02  1.3582E-02  2.9335E-02   27.581
    14    1   0.1631   0.0000  12.7988  0.01350   2.7273E-02  1.4482E-02  3.0879E-02   27.968
    15    1   0.1752   0.0000  12.7928  0.01350   2.8373E-02  1.5307E-02  3.2238E-02   28.346
    16    1   0.1872   0.0000  12.7867  0.01350   2.9295E-02  1.6055E-02  3.3406E-02   28.724
    17    1   0.1993   0.0000  12.7807  0.01350   3.0034E-02  1.6724E-02  3.4377E-02   29.111
    18    1   0.2114   0.0000  12.7747  0.01350   3.0588E-02  1.7318E-02  3.5150E-02   29.518
    19    1   0.2235   0.0000  12.7687  0.01350   3.0953E-02  1.7851E-02  3.5732E-02   29.973
    20    1   0.2356   0.0000  12.7626  0.01350   3.1132E-02  1.8302E-02  3.6113E-02   30.451
    21    2   0.2356   0.0000  12.7566  0.01350   3.1132E-02  1.8302E-02  3.6113E-02   30.451
    22    2   0.2235   0.0000  12.7506  0.01350   3.0953E-02  1.7851E-02  3.5731E-02   29.972
    23    2   0.2114   0.0000  12.7446  0.01350   3.0587E-02  1.7318E-02  3.5149E-02   29.517
    24    2   0.1993   0.0000  12.7386  0.01350   3.0034E-02  1.6723E-02  3.4376E-02   29.109
    25    2   0.1872   0.0000  12.7325  0.01350   2.9294E-02  1.6053E-02  3.3405E-02   28.722
    26    2   0.1752   0.0000  12.7265  0.01350   2.8372E-02  1.5305E-02  3.2237E-02   28.344
    27    2   0.1631   0.0000  12.7205  0.01350   2.7272E-02  1.4479E-02  3.0878E-02   27.965
    28    2   0.1510   0.0000  12.7145  0.01350   2.6001E-02  1.3580E-02  2.9334E-02   27.577
    29    2   0.1389   0.0000  12.7084  0.01350   2.4566E-02  1.2610E-02  2.7614E-02   27.172
    30    2   0.1268   0.0000  12.7024  0.01350   2.2977E-02  1.1576E-02  2.5728E-02   26.739
    31    2   0.1148   0.0000  12.6964  0.01350   2.1243E-02  1.0482E-02  2.3688E-02   26.264
    32    2   0.1027   0.0000  12.6904  0.01350   1.9375E-02  9.3364E-03  2.1507E-02   25.729
    33    2   0.0906   0.0000  12.6843  0.01350   1.7386E-02  8.1455E-03  1.9199E-02   25.104
    34    2   0.0785   0.0000  12.6783  0.01350   1.5288E-02  6.9171E-03  1.6780E-02   24.344
    35    2   0.0664   0.0000  12.6723  0.01350   1.3096E-02  5.6591E-03  1.4266E-02   23.370
    36    2   0.0544   0.0000  12.6663  0.01350   1.0823E-02  4.3798E-03  1.1676E-02   22.031
    37    2   0.0423   0.0000  12.6603  0.01350   8.4862E-03  3.0881E-03  9.0306E-03   19.996
    38    2   0.0302   0.0000  12.6542  0.01350   6.0999E-03  1.7927E-03  6.3578E-03   16.378
    39    2   0.0181   0.0000  12.6482  0.01350   3.6808E-03  5.0308E-04  3.7150E-03    7.783
    40    2   0.0060   0.0000  12.6422  0.01350   1.2459E-03 -7.7047E-04  1.4649E-03  -31.734
    41    3  -0.0060   0.0000  12.6422  0.01350  -1.1896E-03 -2.0213E-03  2.3454E-03 -120.478
    42    3  -0.0181   0.0000  12.6482  0.01350  -3.6243E-03 -3.2746E-03  4.8845E-03 -137.902
    43    3  -0.0302   0.0000  12.6542  0.01350  -6.0431E-03 -4.5235E-03  7.5486E-03 -143.184
    44    3  -0.0423   0.0000  12.6603  0.01350  -8.4290E-03 -5.7578E-03  1.0208E-02 -145.663
    45    3  -0.0544   0.0000  12.6663  0.01350  -1.0766E-02 -6.9684E-03  1.2824E-02 -147.086
    46    3  -0.0664   0.0000  12.6723  0.01350  -1.3038E-02 -8.1465E-03  1.5373E-02 -148.001
    47    3  -0.0785   0.0000  12.6783  0.01350  -1.5229E-02 -9.2839E-03  1.7836E-02 -148.633
    48    3  -0.0906   0.0000  12.6843  0.01350  -1.7326E-02 -1.0373E-02  2.0194E-02 -149.092
    49    3  -0.1027   0.0000  12.6904  0.01350  -1.9315E-02 -1.1406E-02  2.2431E-02 -149.437
    50    3  -0.1148   0.0000  12.6964  0.01350  -2.1181E-02 -1.2376E-02  2.4532E-02 -149.703
    51    3  -0.1268   0.0000  12.7024  0.01350  -2.2915E-02 -1.3276E-02  2.6483E-02 -149.913
    52    3  -0.1389   0.0000  12.7084  0.01350  -2.4504E-02 -1.4102E-02  2.8272E-02 -150.080
    53    3  -0.1510   0.0000  12.7145  0.01350  -2.5938E-02 -1.4846E-02  2.9886E-02 -150.214
    54    3  -0.1631   0.0000  12.7205  0.01350  -2.7208E-02 -1.5506E-02  3.1316E-02 -150.321
    55    3  -0.1752   0.0000  12.7265  0.01350  -2.8308E-02 -1.6076E-02  3.2554E-02 -150.408
    56    3  -0.1872   0.0000  12.7325  0.01350  -2.9229E-02 -1.6553E-02  3.3591E-02 -150.477
    57    3  -0.1993   0.0000  12.7386  0.01350  -2.9969E-02 -1.6935E-02  3.4422E-02 -150.530
    58    3  -0.2114   0.0000  12.7446  0.01350  -3.0522E-02 -1.7219E-02  3.5044E-02 -150.570
    59    3  -0.2235   0.0000  12.7506  0.01350  -3.0887E-02 -1.7406E-02  3.5454E-02 -150.597
    60    3  -0.2356   0.0000  12.7566  0.01350  -3.1066E-02 -1.7497E-02  3.5654E-02 -150.612
    61    4  -0.2356   0.0000  12.7626  0.01350  -3.1066E-02 -1.7496E-02  3.5654E-02 -150.612
    62    4  -0.2235   0.0000  12.7687  0.01350  -3.0887E-02 -1.7406E-02  3.5453E-02 -150.597
    63    4  -0.2114   0.0000  12.7747  0.01350  -3.0521E-02 -1.7218E-02  3.5043E-02 -150.571
    64    4  -0.1993   0.0000  12.7807  0.01350  -2.9968E-02 -1.6934E-02  3.4421E-02 -150.531
    65    4  -0.1872   0.0000  12.7867  0.01350  -2.9229E-02 -1.6551E-02  3.3590E-02 -150.478
    66    4  -0.1752   0.0000  12.7928  0.01350  -2.8307E-02 -1.6074E-02  3.2552E-02 -150.410
    67    4  -0.1631   0.0000  12.7988  0.01350  -2.7208E-02 -1.5504E-02  3.1315E-02 -150.324
    68    4  -0.1510   0.0000  12.8048  0.01350  -2.5937E-02 -1.4844E-02  2.9884E-02 -150.217
    69    4  -0.1389   0.0000  12.8108  0.01350  -2.4503E-02 -1.4099E-02  2.8269E-02 -150.083
    70    4  -0.1268   0.0000  12.8168  0.01350  -2.2914E-02 -1.3273E-02  2.6481E-02 -149.917
    71    4  -0.1148   0.0000  12.8229  0.01350  -2.1180E-02 -1.2373E-02  2.4529E-02 -149.709
    72    4  -0.1027   0.0000  12.8289  0.01350  -1.9313E-02 -1.1402E-02  2.2428E-02 -149.443
    73    4  -0.0906   0.0000  12.8349  0.01350  -1.7325E-02 -1.0369E-02  2.0191E-02 -149.099
    74    4  -0.0785   0.0000  12.8409  0.01350  -1.5228E-02 -9.2802E-03  1.7833E-02 -148.641
    75    4  -0.0664   0.0000  12.8470  0.01350  -1.3036E-02 -8.1426E-03  1.5370E-02 -148.011
    76    4  -0.0544   0.0000  12.8530  0.01350  -1.0764E-02 -6.9643E-03  1.2821E-02 -147.098
    77    4  -0.0423   0.0000  12.8590  0.01350  -8.4276E-03 -5.7537E-03  1.0204E-02 -145.678
    78    4  -0.0302   0.0000  12.8650  0.01350  -6.0417E-03 -4.5193E-03  7.5449E-03 -143.203
    79    4  -0.0181   0.0000  12.8711  0.01350  -3.6229E-03 -3.2703E-03  4.8806E-03 -137.928
    80    4  -0.0060   0.0000  12.8771  0.01350  -1.1882E-03 -2.0170E-03  2.3410E-03 -120.501



                                        - - - POWER BUDGET - - -

                                           INPUT POWER   = 3.1132E-02 WATTS
                                           RADIATED POWER= 3.0490E-02 WATTS
                                           STRUCTURE LOSS= 6.4185E-04 WATTS
                                           NETWORK LOSS  = 0.0000E+00 WATTS
                                           EFFICIENCY    =  97.94 PERCENT



                                                - - - RADIATION PATTERNS - - -

  - - ANGLES - -           - POWER GAINS -       - - - POLARIZATION - - -    - - - E(THETA) - - -    - - - E(PHI) - - -
  THETA     PHI        VERT.   HOR.    TOTAL      AXIAL     TILT   SENSE     MAGNITUDE    PHASE      MAGNITUDE    PHASE 
 DEGREES  DEGREES       DB      DB      DB        RATIO     DEG.              VOLTS/M    DEGREES      VOLTS/M    DEGREES
  -90.00    90.00    -178.18 -999.99 -178.18    0.00031    -0.01  RIGHT     1.68382E-09    27.02    5.55513E-13   -80.84
  -85.00    90.00       4.32  -43.54    4.32    0.00398    -0.04  RIGHT     2.24670E+00  -165.55    9.08496E-03    94.58
  -80.00    90.00       6.14  -48.63    6.14    0.00182     0.01  RIGHT     2.76973E+00  -156.55    5.06064E-03   116.76
  -75.00    90.00       4.67  -41.06    4.67    0.00258     0.26  LEFT      2.33788E+00  -138.76    1.20884E-02  -108.82
  -70.00    90.00       3.10  -33.46    3.10    0.00398     0.82  LEFT      1.95301E+00  -114.89    2.90222E-02   -99.36
  -65.00    90.00       2.66  -30.52    2.66    0.00046     1.26  LEFT      1.85624E+00   -99.01    4.07042E-02   -97.80
  -60.00    90.00       2.29  -29.84    2.29    0.00095     1.42  RIGHT     1.77866E+00   -99.02    4.39935E-02  -101.22
  -55.00    90.00       0.81  -32.58    0.81    0.00013     1.23  RIGHT     1.49971E+00  -118.75    3.20902E-02  -119.09
  -50.00    90.00      -0.52  -33.35   -0.52    0.01659     0.90  RIGHT     1.28707E+00  -176.68    2.93940E-02   136.72
  -45.00    90.00       2.19  -25.18    2.20    0.02088     2.14  RIGHT     1.75781E+00   123.61    7.52693E-02    94.37
  -40.00    90.00      -3.22  -32.81   -3.22    0.01064     1.80  RIGHT     9.42925E-01    44.43    3.12505E-02    25.68
  -35.00    90.00       0.47  -24.52    0.48    0.02331     2.93  RIGHT     1.44229E+00   -70.55    8.11880E-02   -95.08
  -30.00    90.00      -0.67  -24.24   -0.65    0.03204     3.32  RIGHT     1.26493E+00   128.08    8.38117E-02    99.06
  -25.00    90.00      -2.28  -24.21   -2.25    0.03834     4.02  RIGHT     1.05125E+00   -49.56    8.41462E-02   -78.33
  -20.00    90.00      -3.52  -23.40   -3.48    0.04557     5.17  RIGHT     9.10930E-01   117.09    9.23183E-02    90.13
  -15.00    90.00     -10.15  -27.68  -10.08    0.05634     6.87  RIGHT     4.24553E-01  -103.26    5.64592E-02  -128.71
  -10.00    90.00      -9.94  -23.75   -9.76    0.09068    10.35  RIGHT     4.35221E-01   -49.99    8.87311E-02   -77.35
   -5.00    90.00     -21.38  -29.18  -20.71    0.16262    20.51  RIGHT     1.16598E-01    -0.14    4.74637E-02   -27.12
    0.00    90.00    -999.99  -29.94  -29.94    0.00000    90.00  LINEAR    2.21945E-13     9.89    4.34896E-02     9.89
    5.00    90.00     -21.38  -29.18  -20.71    0.16262   -20.51  LEFT      1.16598E-01   179.86    4.74637E-02   -27.12
   10.00    90.00      -9.94  -23.75   -9.76    0.09068   -10.35  LEFT      4.35221E-01   130.01    8.87311E-02   -77.35
   15.00    90.00     -10.15  -27.68  -10.08    0.05634    -6.87  LEFT      4.24553E-01    76.74    5.64592E-02  -128.71
   20.00    90.00      -3.52  -23.40   -3.48    0.04557    -5.17  LEFT      9.10930E-01   -62.91    9.23183E-02    90.13
   25.00    90.00      -2.28  -24.21   -2.25    0.03834    -4.02  LEFT      1.05125E+00   130.44    8.41462E-02   -78.33
   30.00    90.00      -0.67  -24.24   -0.65    0.03204    -3.32  LEFT      1.26493E+00   -51.92    8.38117E-02    99.06
   35.00    90.00       0.47  -24.52    0.48    0.02331    -2.93  LEFT      1.44229E+00   109.45    8.11880E-02   -95.08
   40.00    90.00      -3.22  -32.81   -3.22    0.01064    -1.80  LEFT      9.42925E-01  -135.57    3.12505E-02    25.68
   45.00    90.00       2.19  -25.18    2.20    0.02088    -2.14  LEFT      1.75781E+00   -56.39    7.52693E-02    94.37
   50.00    90.00      -0.52  -33.35   -0.52    0.01659    -0.90  LEFT      1.28707E+00     3.32    2.93940E-02   136.72
   55.00    90.00       0.81  -32.58    0.81    0.00013    -1.23  LEFT      1.49971E+00    61.25    3.20902E-02  -119.09
   60.00    90.00       2.29  -29.84    2.29    0.00095    -1.42  LEFT      1.77866E+00    80.98    4.39935E-02  -101.22
   65.00    90.00       2.66  -30.52    2.66    0.00046    -1.26  RIGHT     1.85624E+00    80.99    4.07042E-02   -97.80
   70.00    90.00       3.10  -33.46    3.10    0.00398    -0.82  RIGHT     1.95301E+00    65.11    2.90222E-02   -99.36
   75.00    90.00       4.67  -41.06    4.67    0.00258    -0.26  RIGHT     2.33788E+00    41.24    1.20884E-02  -108.82
   80.00    90.00       6.14  -48.63    6.14    0.00182    -0.01  LEFT      2.76973E+00    23.45    5.06064E-03   116.76
   85.00    90.00       4.32  -43.54    4.32    0.00398     0.04  LEFT      2.24670E+00    14.45    9.08496E-03    94.58
   90.00    90.00    -178.18 -999.99 -178.18    0.00031     0.01  LEFT      1.68382E-09  -152.98    5.55616E-13   -80.83




                                 - - - - - - FREQUENCY - - - - - -

                                    FREQUENCY= 4.2910E+02 MHZ
                                    WAVELENGTH= 6.9867E-01 METERS




                    APPROXIMATE INTEGRATION EMPLOYED FOR SEGMENTS MORE THAN   1.000 WAVELENGTHS APART

                    THE EXTENDED THIN WIRE KERNEL WILL BE USED



                               - - - STRUCTURE IMPEDANCE LOADING - - -


       LOCATION          RESISTANCE   INDUCTANCE  CAPACITANCE       IMPEDANCE (OHMS)     CONDUCTIVITY    TYPE
    ITAG FROM THRU          OHMS        HENRYS       FARADS        REAL      IMAGINARY    MHOS/METER

     ALL                                                                                 5.8000E+07     WIRE  



                                  - - - ANTENNA ENVIRONMENT - - -

                                        FINITE GROUND.  SOMMERFELD SOLUTION
                                        RELATIVE DIELECTRIC CONST.=  5.000
                                        CONDUCTIVITY= 1.000E-03 MHOS/METER
                                        COMPLEX DIELECTRIC CONSTANT= 5.00000E+00-4.18923E-02



                                - - - MATRIX TIMING - - -

                        FILL=    0.031 SEC.,  FACTOR=    0.000 SEC.



                                          - - - ANTENNA INPUT PARAMETERS - - -

   TAG   SEG.    VOLTAGE (VOLTS)         CURRENT (AMPS)         IMPEDANCE (OHMS)        ADMITTANCE (MHOS)      POWER
   NO.   NO.    REAL        IMAG.       REAL        IMAG.       REAL        IMAG.       REAL        IMAG.     (WATTS)
     1    20 1.00000E+00 0.00000E+00 3.12597E-02 1.82173E-02 2.38799E+01-1.39165E+01 3.12597E-02 1.82173E-02 1.56299E-02
     2    21 1.00000E+00 0.00000E+00 3.12597E-02 1.82171E-02 2.38800E+01-1.39165E+01 3.12597E-02 1.82171E-02 1.56298E-02



                             - - - CURRENTS AND LOCATION - - -

                                 DISTANCES IN WAVELENGTHS


  SEG.  TAG    COORD. OF SEG. CENTER     SEG.            - - - CURRENT (AMPS) - - -
  NO.   NO.     X        Y        Z      LENGTH     REAL        IMAG.       MAG.        PHASE
     1    1   0.0060   0.0000  12.8786  0.01350   1.2522E-03 -7.6961E-04  1.4698E-03  -31.575
     2    1   0.0181   0.0000  12.8726  0.01350   3.6969E-03  4.9712E-04  3.7302E-03    7.659
     3    1   0.0302   0.0000  12.8665  0.01350   6.1258E-03  1.7800E-03  6.3792E-03   16.202
     4    1   0.0423   0.0000  12.8605  0.01350   8.5218E-03  3.0686E-03  9.0575E-03   19.804
     5    1   0.0544   0.0000  12.8545  0.01350   1.0869E-02  4.3539E-03  1.1708E-02   21.831
     6    1   0.0664   0.0000  12.8485  0.01350   1.3150E-02  5.6267E-03  1.4303E-02   23.165
     7    1   0.0785   0.0000  12.8424  0.01350   1.5351E-02  6.8786E-03  1.6822E-02   24.136
     8    1   0.0906   0.0000  12.8364  0.01350   1.7458E-02  8.1011E-03  1.9246E-02   24.893
     9    1   0.1027   0.0000  12.8304  0.01350   1.9455E-02  9.2864E-03  2.1558E-02   25.517
    10    1   0.1148   0.0000  12.8244  0.01350   2.1330E-02  1.0427E-02  2.3742E-02   26.051
    11    1   0.1269   0.0000  12.8183  0.01350   2.3071E-02  1.1515E-02  2.5786E-02   26.525
    12    1   0.1389   0.0000  12.8123  0.01350   2.4667E-02  1.2545E-02  2.7674E-02   26.957
    13    1   0.1510   0.0000  12.8063  0.01350   2.6108E-02  1.3511E-02  2.9397E-02   27.361
    14    1   0.1631   0.0000  12.8003  0.01350   2.7384E-02  1.4407E-02  3.0943E-02   27.749
    15    1   0.1752   0.0000  12.7942  0.01350   2.8489E-02  1.5229E-02  3.2304E-02   28.127
    16    1   0.1873   0.0000  12.7882  0.01350   2.9415E-02  1.5974E-02  3.3473E-02   28.505
    17    1   0.1993   0.0000  12.7822  0.01350   3.0157E-02  1.6642E-02  3.4445E-02   28.892
    18    1   0.2114   0.0000  12.7762  0.01350   3.0713E-02  1.7235E-02  3.5218E-02   29.299
    19    1   0.2235   0.0000  12.7702  0.01350   3.1080E-02  1.7767E-02  3.5800E-02   29.754
    20    1   0.2356   0.0000  12.7641  0.01350   3.1260E-02  1.8217E-02  3.6181E-02   30.232
    21    2   0.2356   0.0000  12.7581  0.01350   3.1260E-02  1.8217E-02  3.6181E-02   30.232
    22    2   0.2235   0.0000  12.7521  0.01350   3.1080E-02  1.7766E-02  3.5799E-02   29.754
    23    2   0.2114   0.0000  12.7461  0.01350   3.0713E-02  1.7234E-02  3.5218E-02   29.298
    24    2   0.1993   0.0000  12.7400  0.01350   3.0157E-02  1.6641E-02  3.4444E-02   28.890
    25    2   0.1873   0.0000  12.7340  0.01350   2.9414E-02  1.5973E-02  3.3472E-02   28.503
    26    2   0.1752   0.0000  12.7280  0.01350   2.8488E-02  1.5227E-02  3.2302E-02   28.125
    27    2   0.1631   0.0000  12.7220  0.01350   2.7384E-02  1.4405E-02  3.0941E-02   27.746
    28    2   0.1510   0.0000  12.7159  0.01350   2.6107E-02  1.3509E-02  2.9395E-02   27.358
    29    2   0.1389   0.0000  12.7099  0.01350   2.4667E-02  1.2543E-02  2.7672E-02   26.953
    30    2   0.1269   0.0000  12.7039  0.01350   2.3071E-02  1.1512E-02  2.5783E-02   26.520
    31    2   0.1148   0.0000  12.6979  0.01350   2.1329E-02  1.0424E-02  2.3740E-02   26.045
    32    2   0.1027   0.0000  12.6918  0.01350   1.9454E-02  9.2831E-03  2.1555E-02   25.510
    33    2   0.0906   0.0000  12.6858  0.01350   1.7456E-02  8.0976E-03  1.9243E-02   24.885
    34    2   0.0785   0.0000  12.6798  0.01350   1.5350E-02  6.8749E-03  1.6819E-02   24.126
    35    2   0.0664   0.0000  12.6738  0.01350   1.3149E-02  5.6229E-03  1.4301E-02   23.153
    36    2   0.0544   0.0000  12.6678  0.01350   1.0867E-02  4.3499E-03  1.1705E-02   21.815
    37    2   0.0423   0.0000  12.6617  0.01350   8.5204E-03  3.0645E-03  9.0548E-03   19.782
    38    2   0.0302   0.0000  12.6557  0.01350   6.1244E-03  1.7758E-03  6.3766E-03   16.170
    39    2   0.0181   0.0000  12.6497  0.01350   3.6954E-03  4.9287E-04  3.7282E-03    7.597
    40    2   0.0060   0.0000  12.6437  0.01350   1.2507E-03 -7.7389E-04  1.4708E-03  -31.747
    41    3  -0.0060   0.0000  12.6437  0.01350  -1.1945E-03 -2.0179E-03  2.3450E-03 -120.624
    42    3  -0.0181   0.0000  12.6497  0.01350  -3.6391E-03 -3.2644E-03  4.8887E-03 -138.107
    43    3  -0.0302   0.0000  12.6557  0.01350  -6.0677E-03 -4.5066E-03  7.5582E-03 -143.398
    44    3  -0.0423   0.0000  12.6617  0.01350  -8.4633E-03 -5.7343E-03  1.0223E-02 -145.881
    45    3  -0.0544   0.0000  12.6678  0.01350  -1.0810E-02 -6.9384E-03  1.2845E-02 -147.305
    46    3  -0.0664   0.0000  12.6738  0.01350  -1.3091E-02 -8.1103E-03  1.5399E-02 -148.220
    47    3  -0.0785   0.0000  12.6798  0.01350  -1.5291E-02 -9.2417E-03  1.7867E-02 -148.852
    48    3  -0.0906   0.0000  12.6858  0.01350  -1.7397E-02 -1.0325E-02  2.0230E-02 -149.311
    49    3  -0.1027   0.0000  12.6918  0.01350  -1.9393E-02 -1.1352E-02  2.2472E-02 -149.657
    50    3  -0.1148   0.0000  12.6979  0.01350  -2.1268E-02 -1.2317E-02  2.4577E-02 -149.923
    51    3  -0.1269   0.0000  12.7039  0.01350  -2.3009E-02 -1.3213E-02  2.6533E-02 -150.133
    52    3  -0.1389   0.0000  12.7099  0.01350  -2.4604E-02 -1.4034E-02  2.8325E-02 -150.300
    53    3  -0.1510   0.0000  12.7159  0.01350  -2.6044E-02 -1.4775E-02  2.9943E-02 -150.434
    54    3  -0.1631   0.0000  12.7220  0.01350  -2.7320E-02 -1.5431E-02  3.1376E-02 -150.541
    55    3  -0.1752   0.0000  12.7280  0.01350  -2.8424E-02 -1.5998E-02  3.2617E-02 -150.628
    56    3  -0.1873   0.0000  12.7340  0.01350  -2.9349E-02 -1.6472E-02  3.3656E-02 -150.697
    57    3  -0.1993   0.0000  12.7400  0.01350  -3.0092E-02 -1.6852E-02  3.4489E-02 -150.750
    58    3  -0.2114   0.0000  12.7461  0.01350  -3.0647E-02 -1.7135E-02  3.5112E-02 -150.790
    59    3  -0.2235   0.0000  12.7521  0.01350  -3.1014E-02 -1.7321E-02  3.5523E-02 -150.817
    60    3  -0.2356   0.0000  12.7581  0.01350  -3.1194E-02 -1.7411E-02  3.5724E-02 -150.832
    61    4  -0.2356   0.0000  12.7641  0.01350  -3.1194E-02 -1.7411E-02  3.5724E-02 -150.832
    62    4  -0.2235   0.0000  12.7702  0.01350  -3.1014E-02 -1.7320E-02  3.5522E-02 -150.818
    63    4  -0.2114   0.0000  12.7762  0.01350  -3.0647E-02 -1.7134E-02  3.5111E-02 -150.791
    64    4  -0.1993   0.0000  12.7822  0.01350  -3.0091E-02 -1.6851E-02  3.4488E-02 -150.751
    65    4  -0.1873   0.0000  12.7882  0.01350  -2.9349E-02 -1.6471E-02  3.3655E-02 -150.698
    66    4  -0.1752   0.0000  12.7942  0.01350  -2.8423E-02 -1.5996E-02  3.2615E-02 -150.630
    67    4  -0.1631   0.0000  12.8003  0.01350  -2.7319E-02 -1.5429E-02  3.1375E-02 -150.544
    68    4  -0.1510   0.0000  12.8063  0.01350  -2.6043E-02 -1.4772E-02  2.9941E-02 -150.437
    69    4  -0.1389   0.0000  12.8123  0.01350  -2.4603E-02 -1.4031E-02  2.8323E-02 -150.303
    70    4  -0.1269   0.0000  12.8183  0.01350  -2.3008E-02 -1.3210E-02  2.6530E-02 -150.137
    71    4  -0.1148   0.0000  12.8244  0.01350  -2.1267E-02 -1.2314E-02  2.4575E-02 -149.928
    72    4  -0.1027   0.0000  12.8304  0.01350  -1.9392E-02 -1.1349E-02  2.2469E-02 -149.663
    73    4  -0.0906   0.0000  12.8364  0.01350  -1.7396E-02 -1.0321E-02  2.0227E-02 -149.318
    74    4  -0.0785   0.0000  12.8424  0.01350  -1.5290E-02 -9.2379E-03  1.7864E-02 -148.860
    75    4  -0.0664   0.0000  12.8485  0.01350  -1.3089E-02 -8.1064E-03  1.5396E-02 -148.230
    76    4  -0.0544   0.0000  12.8545  0.01350  -1.0808E-02 -6.9344E-03  1.2841E-02 -147.316
    77    4  -0.0423   0.0000  12.8605  0.01350  -8.4618E-03 -5.7302E-03  1.0219E-02 -145.895
    78    4  -0.0302   0.0000  12.8665  0.01350  -6.0662E-03 -4.5024E-03  7.5545E-03 -143.417
    79    4  -0.0181   0.0000  12.8726  0.01350  -3.6376E-03 -3.2601E-03  4.8847E-03 -138.132
    80    4  -0.0060   0.0000  12.8786  0.01350  -1.1930E-03 -2.0136E-03  2.3405E-03 -120.646



                                        - - - POWER BUDGET - - -

                                           INPUT POWER   = 3.1260E-02 WATTS
                                           RADIATED POWER= 3.0615E-02 WATTS
                                           STRUCTURE LOSS= 6.4442E-04 WATTS
                                           NETWORK LOSS  = 0.0000E+00 WATTS
                                           EFFICIENCY    =  97.94 PERCENT



                                                - - - RADIATION PATTERNS - - -

  - - ANGLES - -           - POWER GAINS -       - - - POLARIZATION - - -    - - - E(THETA) - - -    - - - E(PHI) - - -
  THETA     PHI        VERT.   HOR.    TOTAL      AXIAL     TILT   SENSE     MAGNITUDE    PHASE      MAGNITUDE    PHASE 
 DEGREES  DEGREES       DB      DB      DB        RATIO     DEG.              VOLTS/M    DEGREES      VOLTS/M    DEGREES
  -90.00    90.00    -178.18 -999.99 -178.18    0.00032    -0.01  RIGHT     1.68756E-09    26.80    5.57594E-13   -80.45
  -85.00    90.00       4.33  -43.56    4.33    0.00397    -0.04  RIGHT     2.25335E+00  -165.75    9.08279E-03    94.62
  -80.00    90.00       6.14  -48.69    6.14    0.00181     0.01  RIGHT     2.77635E+00  -156.73    5.03478E-03   117.02
  -75.00    90.00       4.66  -41.03    4.66    0.00261     0.26  LEFT      2.34172E+00  -138.88    1.21616E-02  -108.72
  -70.00    90.00       3.10  -33.44    3.10    0.00401     0.82  LEFT      1.95609E+00  -114.93    2.91247E-02   -99.31
  -65.00    90.00       2.66  -30.51    2.67    0.00049     1.26  LEFT      1.86037E+00   -99.00    4.08294E-02   -97.73
  -60.00    90.00       2.30  -29.83    2.30    0.00092     1.42  RIGHT     1.78395E+00   -98.98    4.41720E-02  -101.12
  -55.00    90.00       0.82  -32.53    0.83    0.00006     1.23  RIGHT     1.50525E+00  -118.60    3.23489E-02  -118.75
  -50.00    90.00      -0.54  -33.44   -0.53    0.01635     0.90  RIGHT     1.28717E+00  -176.42    2.91473E-02   137.34
  -45.00    90.00       2.18  -25.20    2.19    0.02076     2.14  RIGHT     1.76039E+00   123.62    7.52185E-02    94.50
  -40.00    90.00      -3.20  -32.77   -3.20    0.01040     1.81  RIGHT     9.47120E-01    44.90    3.14674E-02    26.64
  -35.00    90.00       0.49  -24.52    0.50    0.02314     2.93  RIGHT     1.44767E+00   -70.52    8.13616E-02   -94.90
  -30.00    90.00      -0.69  -24.28   -0.67    0.03180     3.32  RIGHT     1.26509E+00   128.11    8.36409E-02    99.26
  -25.00    90.00      -2.30  -24.25   -2.27    0.03803     4.02  RIGHT     1.05061E+00   -49.51    8.39140E-02   -78.10
  -20.00    90.00      -3.52  -23.42   -3.47    0.04518     5.17  RIGHT     9.13177E-01   117.11    9.23711E-02    90.34
  -15.00    90.00     -10.08  -27.62  -10.01    0.05584     6.87  RIGHT     4.28721E-01  -102.85    5.69398E-02  -128.10
  -10.00    90.00      -9.96  -23.79   -9.79    0.08985    10.35  RIGHT     4.34762E-01   -49.94    8.84656E-02   -77.08
   -5.00    90.00     -21.44  -29.26  -20.77    0.16106    20.50  RIGHT     1.16035E-01     0.62    4.71497E-02   -26.14
    0.00    90.00    -999.99  -29.94  -29.94    0.00000    90.00  LINEAR    2.22581E-13    11.06    4.36141E-02    11.06
    5.00    90.00     -21.44  -29.26  -20.77    0.16106   -20.50  LEFT      1.16035E-01  -179.38    4.71497E-02   -26.14
   10.00    90.00      -9.96  -23.79   -9.79    0.08985   -10.35  LEFT      4.34762E-01   130.06    8.84656E-02   -77.08
   15.00    90.00     -10.08  -27.62  -10.01    0.05584    -6.87  LEFT      4.28721E-01    77.15    5.69398E-02  -128.10
   20.00    90.00      -3.52  -23.42   -3.47    0.04518    -5.17  LEFT      9.13177E-01   -62.89    9.23711E-02    90.34
   25.00    90.00      -2.30  -24.25   -2.27    0.03803    -4.02  LEFT      1.05061E+00   130.49    8.39140E-02   -78.10
   30.00    90.00      -0.69  -24.28   -0.67    0.03180    -3.32  LEFT      1.26509E+00   -51.89    8.36409E-02    99.26
   35.00    90.00       0.49  -24.52    0.50    0.02314    -2.93  LEFT      1.44767E+00   109.48    8.13616E-02   -94.90
   40.00    90.00      -3.20  -32.77   -3.20    0.01040    -1.81  LEFT      9.47120E-01  -135.10    3.14674E-02    26.64
   45.00    90.00       2.18  -25.20    2.19    0.02076    -2.14  LEFT      1.76039E+00   -56.38    7.52185E-02    94.50
   50.00    90.00      -0.54  -33.44   -0.53    0.01635    -0.90  LEFT      1.28717E+00     3.58    2.91473E-02   137.34
   55.00    90.00       0.82  -32.53    0.83    0.00006    -1.23  LEFT      1.50525E+00    61.40    3.23489E-02  -118.75
   60.00    90.00       2.30  -29.83    2.30    0.00092    -1.42  LEFT      1.78395E+00    81.02    4.41720E-02  -101.12
   65.00    90.00       2.66  -30.51    2.67    0.00049    -1.26  RIGHT     1.86037E+00    81.00    4.08294E-02   -97.73
   70.00    90.00       3.10  -33.44    3.10    0.00401    -0.82  RIGHT     1.95609E+00    65.07    2.91247E-02   -99.31
   75.00    90.00       4.66  -41.03    4.66    0.00261    -0.26  RIGHT     2.34172E+00    41.12    1.21616E-02  -108.72
   80.00    90.00       6.14  -48.69    6.14    0.00181    -0.01  LEFT      2.77635E+00    23.27    5.03478E-03   117.02
   85.00    90.00       4.33  -43.56    4.33    0.00397     0.04  LEFT      2.25335E+00    14.25    9.08279E-03    94.62
   90.00    90.00    -178.18 -999.99 -178.18    0.00032     0.01  LEFT      1.68755E-09  -153.20    5.57680E-13   -80.44




                                 - - - - - - FREQUENCY - - - - - -

                                    FREQUENCY= 4.2915E+02 MHZ
                                    WAVELENGTH= 6.9859E-01 METERS




                    APPROXIMATE INTEGRATION EMPLOYED FOR SEGMENTS MORE THAN   1.000 WAVELENGTHS APART

                    THE EXTENDED THIN WIRE KERNEL WILL BE USED



                               - - - STRUCTURE IMPEDANCE LOADING - - -


       LOCATION          RESISTANCE   INDUCTANCE  CAPACITANCE       IMPEDANCE (OHMS)     CONDUCTIVITY    TYPE
    ITAG FROM THRU          OHMS        HENRYS       FARADS        REAL      IMAGINARY    MHOS/METER

     ALL                                                                                 5.8000E+07     WIRE  



                                  - - - ANTENNA ENVIRONMENT - - -

                                        FINITE GROUND.  SOMMERFELD SOLUTION
                                        RELATIVE DIELECTRIC CONST.=  5.000
                                        CONDUCTIVITY= 1.000E-03 MHOS/METER
                                        COMPLEX DIELECTRIC CONSTANT= 5.00000E+00-4.18875E-02



                                - - - MATRIX TIMING - - -

                        FILL=    0.031 SEC.,  FACTOR=    0.016 SEC.



                                          - - - ANTENNA INPUT PARAMETERS - - -

   TAG   SEG.    VOLTAGE (VOLTS)         CURRENT (AMPS)         IMPEDANCE (OHMS)        ADMITTANCE (MHOS)      POWER
   NO.   NO.    REAL        IMAG.       REAL        IMAG.       REAL        IMAG.       REAL        IMAG.     (WATTS)
     1    20 1.00000E+00 0.00000E+00 3.13872E-02 1.81310E-02 2.38888E+01-1.37995E+01 3.13872E-02 1.81310E-02 1.56936E-02
     2    21 1.00000E+00 0.00000E+00 3.13871E-02 1.81308E-02 2.38889E+01-1.37995E+01 3.13871E-02 1.81308E-02 1.56936E-02



                             - - - CURRENTS AND LOCATION - - -

                                 DISTANCES IN WAVELENGTHS


  SEG.  TAG    COORD. OF SEG. CENTER     SEG.            - - - CURRENT (AMPS) - - -
  NO.   NO.     X        Y        Z      LENGTH     REAL        IMAG.       MAG.        PHASE
     1    1   0.0060   0.0000  12.8801  0.01350   1.2571E-03 -7.7311E-04  1.4758E-03  -31.590
     2    1   0.0181   0.0000  12.8741  0.01350   3.7117E-03  4.8673E-04  3.7434E-03    7.471
     3    1   0.0302   0.0000  12.8680  0.01350   6.1503E-03  1.7628E-03  6.3980E-03   15.993
     4    1   0.0423   0.0000  12.8620  0.01350   8.5560E-03  3.0447E-03  9.0817E-03   19.589
     5    1   0.0544   0.0000  12.8560  0.01350   1.0912E-02  4.3234E-03  1.1738E-02   21.613
     6    1   0.0665   0.0000  12.8500  0.01350   1.3203E-02  5.5900E-03  1.4338E-02   22.947
     7    1   0.0785   0.0000  12.8439  0.01350   1.5413E-02  6.8357E-03  1.6861E-02   23.917
     8    1   0.0906   0.0000  12.8379  0.01350   1.7528E-02  8.0525E-03  1.9289E-02   24.674
     9    1   0.1027   0.0000  12.8319  0.01350   1.9534E-02  9.2322E-03  2.1606E-02   25.297
    10    1   0.1148   0.0000  12.8259  0.01350   2.1417E-02  1.0368E-02  2.3794E-02   25.831
    11    1   0.1269   0.0000  12.8198  0.01350   2.3165E-02  1.1451E-02  2.5841E-02   26.305
    12    1   0.1390   0.0000  12.8138  0.01350   2.4768E-02  1.2477E-02  2.7733E-02   26.737
    13    1   0.1510   0.0000  12.8078  0.01350   2.6214E-02  1.3438E-02  2.9458E-02   27.141
    14    1   0.1631   0.0000  12.8018  0.01350   2.7496E-02  1.4331E-02  3.1006E-02   27.529
    15    1   0.1752   0.0000  12.7957  0.01350   2.8605E-02  1.5150E-02  3.2369E-02   27.907
    16    1   0.1873   0.0000  12.7897  0.01350   2.9535E-02  1.5893E-02  3.3539E-02   28.285
    17    1   0.1994   0.0000  12.7837  0.01350   3.0280E-02  1.6559E-02  3.4512E-02   28.672
    18    1   0.2114   0.0000  12.7777  0.01350   3.0838E-02  1.7150E-02  3.5286E-02   29.080
    19    1   0.2235   0.0000  12.7716  0.01350   3.1207E-02  1.7681E-02  3.5867E-02   29.535
    20    1   0.2356   0.0000  12.7656  0.01350   3.1387E-02  1.8131E-02  3.6248E-02   30.013
    21    2   0.2356   0.0000  12.7596  0.01350   3.1387E-02  1.8131E-02  3.6247E-02   30.013
    22    2   0.2235   0.0000  12.7536  0.01350   3.1207E-02  1.7680E-02  3.5867E-02   29.534
    23    2   0.2114   0.0000  12.7475  0.01350   3.0838E-02  1.7149E-02  3.5286E-02   29.079
    24    2   0.1994   0.0000  12.7415  0.01350   3.0280E-02  1.6558E-02  3.4511E-02   28.671
    25    2   0.1873   0.0000  12.7355  0.01350   2.9534E-02  1.5892E-02  3.3538E-02   28.283
    26    2   0.1752   0.0000  12.7295  0.01350   2.8604E-02  1.5148E-02  3.2368E-02   27.905
    27    2   0.1631   0.0000  12.7234  0.01350   2.7495E-02  1.4329E-02  3.1005E-02   27.526
    28    2   0.1510   0.0000  12.7174  0.01350   2.6214E-02  1.3436E-02  2.9456E-02   27.138
    29    2   0.1390   0.0000  12.7114  0.01350   2.4767E-02  1.2474E-02  2.7731E-02   26.733
    30    2   0.1269   0.0000  12.7054  0.01350   2.3164E-02  1.1448E-02  2.5839E-02   26.300
    31    2   0.1148   0.0000  12.6994  0.01350   2.1416E-02  1.0364E-02  2.3792E-02   25.825
    32    2   0.1027   0.0000  12.6933  0.01350   1.9533E-02  9.2289E-03  2.1603E-02   25.290
    33    2   0.0906   0.0000  12.6873  0.01350   1.7527E-02  8.0490E-03  1.9287E-02   24.666
    34    2   0.0785   0.0000  12.6813  0.01350   1.5412E-02  6.8320E-03  1.6859E-02   23.907
    35    2   0.0665   0.0000  12.6753  0.01350   1.3202E-02  5.5861E-03  1.4335E-02   22.935
    36    2   0.0544   0.0000  12.6692  0.01350   1.0911E-02  4.3195E-03  1.1735E-02   21.598
    37    2   0.0423   0.0000  12.6632  0.01350   8.5546E-03  3.0407E-03  9.0789E-03   19.567
    38    2   0.0302   0.0000  12.6572  0.01350   6.1488E-03  1.7586E-03  6.3954E-03   15.961
    39    2   0.0181   0.0000  12.6512  0.01350   3.7101E-03  4.8252E-04  3.7413E-03    7.410
    40    2   0.0060   0.0000  12.6451  0.01350   1.2556E-03 -7.7735E-04  1.4767E-03  -31.763
    41    3  -0.0060   0.0000  12.6451  0.01350  -1.1995E-03 -2.0145E-03  2.3445E-03 -120.771
    42    3  -0.0181   0.0000  12.6512  0.01350  -3.6538E-03 -3.2540E-03  4.8928E-03 -138.312
    43    3  -0.0302   0.0000  12.6572  0.01350  -6.0922E-03 -4.4894E-03  7.5677E-03 -143.613
    44    3  -0.0423   0.0000  12.6632  0.01350  -8.4975E-03 -5.7104E-03  1.0238E-02 -146.099
    45    3  -0.0544   0.0000  12.6692  0.01350  -1.0853E-02 -6.9079E-03  1.2865E-02 -147.524
    46    3  -0.0665   0.0000  12.6753  0.01350  -1.3144E-02 -8.0735E-03  1.5425E-02 -148.440
    47    3  -0.0785   0.0000  12.6813  0.01350  -1.5353E-02 -9.1987E-03  1.7898E-02 -149.073
    48    3  -0.0906   0.0000  12.6873  0.01350  -1.7468E-02 -1.0276E-02  2.0266E-02 -149.532
    49    3  -0.1027   0.0000  12.6933  0.01350  -1.9472E-02 -1.1298E-02  2.2513E-02 -149.877
    50    3  -0.1148   0.0000  12.6994  0.01350  -2.1355E-02 -1.2258E-02  2.4623E-02 -150.144
    51    3  -0.1269   0.0000  12.7054  0.01350  -2.3102E-02 -1.3149E-02  2.6582E-02 -150.354
    52    3  -0.1390   0.0000  12.7114  0.01350  -2.4704E-02 -1.3965E-02  2.8378E-02 -150.521
    53    3  -0.1510   0.0000  12.7174  0.01350  -2.6150E-02 -1.4702E-02  3.0000E-02 -150.655
    54    3  -0.1631   0.0000  12.7234  0.01350  -2.7431E-02 -1.5355E-02  3.1436E-02 -150.762
    55    3  -0.1752   0.0000  12.7295  0.01350  -2.8540E-02 -1.5918E-02  3.2679E-02 -150.849
    56    3  -0.1873   0.0000  12.7355  0.01350  -2.9469E-02 -1.6391E-02  3.3721E-02 -150.918
    57    3  -0.1994   0.0000  12.7415  0.01350  -3.0215E-02 -1.6768E-02  3.4556E-02 -150.971
    58    3  -0.2114   0.0000  12.7475  0.01350  -3.0772E-02 -1.7050E-02  3.5180E-02 -151.011
    59    3  -0.2235   0.0000  12.7536  0.01350  -3.1141E-02 -1.7235E-02  3.5592E-02 -151.038
    60    3  -0.2356   0.0000  12.7596  0.01350  -3.1321E-02 -1.7324E-02  3.5793E-02 -151.053
    61    4  -0.2356   0.0000  12.7656  0.01350  -3.1321E-02 -1.7324E-02  3.5793E-02 -151.053
    62    4  -0.2235   0.0000  12.7716  0.01350  -3.1140E-02 -1.7234E-02  3.5591E-02 -151.038
    63    4  -0.2114   0.0000  12.7777  0.01350  -3.0772E-02 -1.7049E-02  3.5179E-02 -151.012
    64    4  -0.1994   0.0000  12.7837  0.01350  -3.0214E-02 -1.6767E-02  3.4555E-02 -150.972
    65    4  -0.1873   0.0000  12.7897  0.01350  -2.9469E-02 -1.6389E-02  3.3720E-02 -150.919
    66    4  -0.1752   0.0000  12.7957  0.01350  -2.8539E-02 -1.5917E-02  3.2678E-02 -150.851
    67    4  -0.1631   0.0000  12.8018  0.01350  -2.7431E-02 -1.5352E-02  3.1435E-02 -150.765
    68    4  -0.1510   0.0000  12.8078  0.01350  -2.6149E-02 -1.4700E-02  2.9998E-02 -150.658
    69    4  -0.1390   0.0000  12.8138  0.01350  -2.4703E-02 -1.3963E-02  2.8376E-02 -150.524
    70    4  -0.1269   0.0000  12.8198  0.01350  -2.3101E-02 -1.3146E-02  2.6580E-02 -150.358
    71    4  -0.1148   0.0000  12.8259  0.01350  -2.1353E-02 -1.2255E-02  2.4620E-02 -150.149
    72    4  -0.1027   0.0000  12.8319  0.01350  -1.9471E-02 -1.1295E-02  2.2510E-02 -149.883
    73    4  -0.0906   0.0000  12.8379  0.01350  -1.7466E-02 -1.0272E-02  2.0263E-02 -149.539
    74    4  -0.0785   0.0000  12.8439  0.01350  -1.5352E-02 -9.1950E-03  1.7895E-02 -149.081
    75    4  -0.0665   0.0000  12.8500  0.01350  -1.3142E-02 -8.0696E-03  1.5422E-02 -148.449
    76    4  -0.0544   0.0000  12.8560  0.01350  -1.0852E-02 -6.9040E-03  1.2862E-02 -147.535
    77    4  -0.0423   0.0000  12.8620  0.01350  -8.4960E-03 -5.7063E-03  1.0234E-02 -146.113
    78    4  -0.0302   0.0000  12.8680  0.01350  -6.0906E-03 -4.4852E-03  7.5639E-03 -143.632
    79    4  -0.0181   0.0000  12.8741  0.01350  -3.6522E-03 -3.2498E-03  4.8888E-03 -138.337
    80    4  -0.0060   0.0000  12.8801  0.01350  -1.1979E-03 -2.0102E-03  2.3401E-03 -120.790



                                        - - - POWER BUDGET - - -

                                           INPUT POWER   = 3.1387E-02 WATTS
                                           RADIATED POWER= 3.0740E-02 WATTS
                                           STRUCTURE LOSS= 6.4699E-04 WATTS
                                           NETWORK LOSS  = 0.0000E+00 WATTS
                                           EFFICIENCY    =  97.94 PERCENT



                                                - - - RADIATION PATTERNS - - -

  - - ANGLES - -           - POWER GAINS -       - - - POLARIZATION - - -    - - - E(THETA) - - -    - - - E(PHI) - - -
  THETA     PHI        VERT.   HOR.    TOTAL      AXIAL     TILT   SENSE     MAGNITUDE    PHASE      MAGNITUDE    PHASE 
 DEGREES  DEGREES       DB      DB      DB        RATIO     DEG.              VOLTS/M    DEGREES      VOLTS/M    DEGREES
  -90.00    90.00    -178.18 -999.99 -178.18    0.00032    -0.01  RIGHT     1.69128E-09    26.58    5.60248E-13   -80.08
  -85.00    90.00       4.34  -43.58    4.34    0.00396    -0.04  RIGHT     2.26000E+00  -165.94    9.08072E-03    94.66
  -80.00    90.00       6.14  -48.75    6.14    0.00180     0.01  RIGHT     2.78295E+00  -156.91    5.00912E-03   117.28
  -75.00    90.00       4.66  -40.99    4.66    0.00264     0.26  LEFT      2.34552E+00  -139.01    1.22345E-02  -108.62
  -70.00    90.00       3.10  -33.43    3.10    0.00404     0.82  LEFT      1.95915E+00  -114.98    2.92269E-02   -99.25
  -65.00    90.00       2.67  -30.50    2.67    0.00051     1.26  LEFT      1.86448E+00   -99.00    4.09540E-02   -97.66
  -60.00    90.00       2.31  -29.81    2.31    0.00089     1.42  RIGHT     1.78924E+00   -98.94    4.43496E-02  -101.01
  -55.00    90.00       0.84  -32.48    0.84    0.00001     1.24  LEFT      1.51082E+00  -118.46    3.26077E-02  -118.42
  -50.00    90.00      -0.55  -33.53   -0.55    0.01611     0.90  RIGHT     1.28729E+00  -176.17    2.89032E-02   137.98
  -45.00    90.00       2.18  -25.23    2.19    0.02064     2.14  RIGHT     1.76291E+00   123.63    7.51648E-02    94.63
  -40.00    90.00      -3.18  -32.73   -3.17    0.01016     1.82  RIGHT     9.51408E-01    45.37    3.16915E-02    27.59
  -35.00    90.00       0.50  -24.52    0.51    0.02296     2.93  RIGHT     1.45299E+00   -70.50    8.15313E-02   -94.72
[...]
  -90.00    90.00    -177.84 -999.99 -177.84    0.00042     0.01  RIGHT     1.70377E-09   -32.21    7.55168E-13  -103.84
  -85.00    90.00       5.92  -44.52    5.92    0.00221     0.12  RIGHT     2.62768E+00   139.71    7.89448E-03    92.27
  -80.00    90.00       6.31  -49.21    6.31    0.00166    -0.01  LEFT      2.74759E+00   153.84    4.60294E-03  -109.41
  -75.00    90.00       3.09  -33.58    3.09    0.01433     0.18  LEFT      1.89644E+00  -171.23    2.78206E-02   -93.51
  -70.00    90.00       2.31  -29.50    2.31    0.01572     1.16  LEFT      1.73274E+00  -126.93    4.45025E-02   -89.17
  -65.00    90.00       2.84  -28.24    2.84    0.00986     1.50  LEFT      1.84126E+00  -105.89    5.14527E-02   -85.22
  -60.00    90.00       2.90  -27.31    2.91    0.01064     1.66  LEFT      1.85587E+00  -103.46    5.72679E-02   -83.27
  -55.00    90.00       3.01  -25.92    3.01    0.01715     1.80  LEFT      1.87789E+00  -114.88    6.71669E-02   -86.20
  -50.00    90.00       2.31  -25.89    2.32    0.02564     1.67  LEFT      1.73403E+00  -137.82    6.73964E-02   -96.50
  -45.00    90.00      -1.94  -33.45   -1.93    0.01792     1.12  LEFT      1.06284E+00   163.10    2.82254E-02  -154.44
  -40.00    90.00       1.44  -24.33    1.45    0.02474     2.58  LEFT      1.56842E+00    68.82    8.07009E-02    97.63
  -35.00    90.00      -4.69  -32.05   -4.68    0.02152     2.12  LEFT      7.74186E-01   -35.77    3.31929E-02    -5.60
  -30.00    90.00      -2.91  -26.43   -2.89    0.04105     3.00  LEFT      9.50748E-01  -152.88    6.33399E-02  -114.72
  -25.00    90.00      -3.40  -24.97   -3.37    0.04821     3.90  LEFT      8.97799E-01    36.36    7.49762E-02    71.81
  -20.00    90.00      -7.70  -27.49   -7.65    0.05870     4.80  LEFT      5.47577E-01  -164.15    5.60669E-02  -128.89
  -15.00    90.00      -9.72  -26.77   -9.63    0.07025     6.93  LEFT      4.33952E-01   -81.87    6.09313E-02   -51.36
  -10.00    90.00     -10.27  -23.58  -10.07    0.11265    10.45  LEFT      4.07465E-01    44.38    8.80252E-02    76.99
   -5.00    90.00     -15.80  -23.06  -15.05    0.20154    21.06  LEFT      2.15548E-01    70.24    9.33993E-02   102.30
    0.00    90.00    -999.99  -24.31  -24.31    0.00000    90.00  LINEAR    4.12760E-13   112.77    8.08793E-02   112.77
    5.00    90.00     -15.80  -23.06  -15.05    0.20154   -21.06  RIGHT     2.15548E-01  -109.76    9.33993E-02   102.30
   10.00    90.00     -10.27  -23.58  -10.07    0.11265   -10.45  RIGHT     4.07465E-01  -135.62    8.80252E-02    76.99
   15.00    90.00      -9.72  -26.77   -9.63    0.07025    -6.93  RIGHT     4.33952E-01    98.13    6.09313E-02   -51.36
   20.00    90.00      -7.70  -27.49   -7.65    0.05870    -4.80  RIGHT     5.47577E-01    15.85    5.60669E-02  -128.89
   25.00    90.00      -3.40  -24.97   -3.37    0.04821    -3.90  RIGHT     8.97799E-01  -143.64    7.49762E-02    71.81
   30.00    90.00      -2.91  -26.43   -2.89    0.04105    -3.00  RIGHT     9.50748E-01    27.12    6.33399E-02  -114.72
   35.00    90.00      -4.69  -32.05   -4.68    0.02152    -2.12  RIGHT     7.74186E-01   144.23    3.31929E-02    -5.60
   40.00    90.00       1.44  -24.33    1.45    0.02474    -2.58  RIGHT     1.56842E+00  -111.18    8.07009E-02    97.63
   45.00    90.00      -1.94  -33.45   -1.93    0.01792    -1.12  RIGHT     1.06284E+00   -16.90    2.82254E-02  -154.44
   50.00    90.00       2.31  -25.89    2.32    0.02564    -1.67  RIGHT     1.73403E+00    42.18    6.73964E-02   -96.50
   55.00    90.00       3.01  -25.92    3.01    0.01715    -1.80  RIGHT     1.87789E+00    65.12    6.71669E-02   -86.20
   60.00    90.00       2.90  -27.31    2.91    0.01064    -1.66  RIGHT     1.85587E+00    76.54    5.72679E-02   -83.27
   65.00    90.00       2.84  -28.24    2.84    0.00986    -1.50  RIGHT     1.84126E+00    74.11    5.14527E-02   -85.22
   70.00    90.00       2.31  -29.50    2.31    0.01572    -1.16  RIGHT     1.73274E+00    53.07    4.45025E-02   -89.17
   75.00    90.00       3.09  -33.58    3.09    0.01433    -0.18  RIGHT     1.89644E+00     8.77    2.78206E-02   -93.51
   80.00    90.00       6.31  -49.21    6.31    0.00166     0.01  RIGHT     2.74759E+00   -26.16    4.60294E-03  -109.41
   85.00    90.00       5.92  -44.52    5.92    0.00221    -0.12  LEFT      2.62768E+00   -40.29    7.89448E-03    92.27
   90.00    90.00    -177.84 -999.99 -177.84    0.00042    -0.01  LEFT      1.70377E-09   147.79    7.55324E-13  -103.85




                                 - - - - - - FREQUENCY - - - - - -

                                    FREQUENCY= 4.4100E+02 MHZ
                                    WAVELENGTH= 6.7982E-01 METERS




                    APPROXIMATE INTEGRATION EMPLOYED FOR SEGMENTS MORE THAN   1.000 WAVELENGTHS APART

                    THE EXTENDED THIN WIRE KERNEL WILL BE USED



                               - - - STRUCTURE IMPEDANCE LOADING - - -


       LOCATION          RESISTANCE   INDUCTANCE  CAPACITANCE       IMPEDANCE (OHMS)     CONDUCTIVITY    TYPE
    ITAG FROM THRU          OHMS        HENRYS       FARADS        REAL      IMAGINARY    MHOS/METER

     ALL                                                                                 5.8000E+07     WIRE  



                                  - - - ANTENNA ENVIRONMENT - - -

                                        FINITE GROUND.  SOMMERFELD SOLUTION
                                        RELATIVE DIELECTRIC CONST.=  5.000
                                        CONDUCTIVITY= 1.000E-03 MHOS/METER
                                        COMPLEX DIELECTRIC CONSTANT= 5.00000E+00-4.07619E-02



                                - - - MATRIX TIMING - - -

                        FILL=    0.031 SEC.,  FACTOR=    0.016 SEC.



                                          - - - ANTENNA INPUT PARAMETERS - - -

   TAG   SEG.    VOLTAGE (VOLTS)         CURRENT (AMPS)         IMPEDANCE (OHMS)        ADMITTANCE (MHOS)      POWER
   NO.   NO.    REAL        IMAG.       REAL        IMAG.       REAL        IMAG.       REAL        IMAG.     (WATTS)
     1    20 1.00000E+00 0.00000E+00 2.93148E-02-1.60566E-02 2.62402E+01 1.43725E+01 2.93148E-02-1.60566E-02 1.46574E-02
     2    21 1.00000E+00 0.00000E+00 2.93149E-02-1.60566E-02 2.62401E+01 1.43724E+01 2.93149E-02-1.60566E-02 1.46575E-02



                             - - - CURRENTS AND LOCATION - - -

                                 DISTANCES IN WAVELENGTHS


  SEG.  TAG    COORD. OF SEG. CENTER     SEG.            - - - CURRENT (AMPS) - - -
  NO.   NO.     X        Y        Z      LENGTH     REAL        IMAG.       MAG.        PHASE
     1    1   0.0062   0.0000  13.2357  0.01387   1.1495E-03 -2.1108E-03  2.4035E-03  -61.428
     2    1   0.0186   0.0000  13.2295  0.01387   3.4033E-03 -3.5152E-03  4.8928E-03  -45.926
     3    1   0.0310   0.0000  13.2234  0.01387   5.6534E-03 -4.8913E-03  7.4757E-03  -40.866
     4    1   0.0435   0.0000  13.2172  0.01387   7.8818E-03 -6.2295E-03  1.0046E-02  -38.322
     5    1   0.0559   0.0000  13.2110  0.01387   1.0072E-02 -7.5204E-03  1.2570E-02  -36.748
     6    1   0.0683   0.0000  13.2048  0.01387   1.2207E-02 -8.7546E-03  1.5022E-02  -35.646
     7    1   0.0807   0.0000  13.1986  0.01387   1.4273E-02 -9.9234E-03  1.7384E-02  -34.809
     8    1   0.0931   0.0000  13.1924  0.01387   1.6254E-02 -1.1018E-02  1.9637E-02  -34.133
     9    1   0.1055   0.0000  13.1862  0.01387   1.8137E-02 -1.2032E-02  2.1765E-02  -33.560
    10    1   0.1180   0.0000  13.1800  0.01387   1.9908E-02 -1.2956E-02  2.3752E-02  -33.057
    11    1   0.1304   0.0000  13.1738  0.01387   2.1554E-02 -1.3785E-02  2.5585E-02  -32.602
    12    1   0.1428   0.0000  13.1676  0.01387   2.3065E-02 -1.4513E-02  2.7251E-02  -32.178
    13    1   0.1552   0.0000  13.1614  0.01387   2.4431E-02 -1.5133E-02  2.8738E-02  -31.775
    14    1   0.1676   0.0000  13.1553  0.01387   2.5641E-02 -1.5641E-02  3.0035E-02  -31.382
    15    1   0.1800   0.0000  13.1491  0.01387   2.6689E-02 -1.6032E-02  3.1134E-02  -30.992
    16    1   0.1925   0.0000  13.1429  0.01387   2.7568E-02 -1.6302E-02  3.2027E-02  -30.597
    17    1   0.2049   0.0000  13.1367  0.01387   2.8272E-02 -1.6446E-02  3.2708E-02  -30.186
    18    1   0.2173   0.0000  13.1305  0.01387   2.8799E-02 -1.6457E-02  3.3169E-02  -29.746
    19    1   0.2297   0.0000  13.1243  0.01387   2.9146E-02 -1.6320E-02  3.3404E-02  -29.246
    20    1   0.2421   0.0000  13.1181  0.01387   2.9315E-02 -1.6057E-02  3.3424E-02  -28.711
    21    2   0.2421   0.0000  13.1119  0.01387   2.9315E-02 -1.6057E-02  3.3424E-02  -28.711
    22    2   0.2297   0.0000  13.1057  0.01387   2.9146E-02 -1.6320E-02  3.3404E-02  -29.246
    23    2   0.2173   0.0000  13.0995  0.01387   2.8800E-02 -1.6457E-02  3.3170E-02  -29.746
    24    2   0.2049   0.0000  13.0933  0.01387   2.8273E-02 -1.6446E-02  3.2709E-02  -30.185
    25    2   0.1925   0.0000  13.0872  0.01387   2.7569E-02 -1.6302E-02  3.2028E-02  -30.596
    26    2   0.1800   0.0000  13.0810  0.01387   2.6691E-02 -1.6032E-02  3.1136E-02  -30.991
    27    2   0.1676   0.0000  13.0748  0.01387   2.5643E-02 -1.5641E-02  3.0037E-02  -31.381
    28    2   0.1552   0.0000  13.0686  0.01387   2.4433E-02 -1.5133E-02  2.8740E-02  -31.773
    29    2   0.1428   0.0000  13.0624  0.01387   2.3068E-02 -1.4513E-02  2.7254E-02  -32.176
    30    2   0.1304   0.0000  13.0562  0.01387   2.1557E-02 -1.3786E-02  2.5588E-02  -32.600
    31    2   0.1180   0.0000  13.0500  0.01387   1.9911E-02 -1.2957E-02  2.3755E-02  -33.055
    32    2   0.1055   0.0000  13.0438  0.01387   1.8140E-02 -1.2033E-02  2.1768E-02  -33.557
    33    2   0.0931   0.0000  13.0376  0.01387   1.6258E-02 -1.1019E-02  1.9640E-02  -34.129
    34    2   0.0807   0.0000  13.0314  0.01387   1.4277E-02 -9.9243E-03  1.7387E-02  -34.805
    35    2   0.0683   0.0000  13.0253  0.01387   1.2211E-02 -8.7556E-03  1.5026E-02  -35.641
    36    2   0.0559   0.0000  13.0191  0.01387   1.0076E-02 -7.5214E-03  1.2573E-02  -36.741
    37    2   0.0435   0.0000  13.0129  0.01387   7.8858E-03 -6.2306E-03  1.0050E-02  -38.313
    38    2   0.0310   0.0000  13.0067  0.01387   5.6574E-03 -4.8924E-03  7.4795E-03  -40.852
    39    2   0.0186   0.0000  13.0005  0.01387   3.4074E-03 -3.5163E-03  4.8964E-03  -45.901
    40    2   0.0062   0.0000  12.9943  0.01387   1.1536E-03 -2.1120E-03  2.4065E-03  -61.356
    41    3  -0.0062   0.0000  12.9943  0.01387  -1.0901E-03 -6.8939E-04  1.2898E-03 -147.689
    42    3  -0.0186   0.0000  13.0005  0.01387  -3.3437E-03  7.3650E-04  3.4239E-03  167.578
    43    3  -0.0310   0.0000  13.0067  0.01387  -5.5934E-03  2.1557E-03  5.9944E-03  158.923
    44    3  -0.0435   0.0000  13.0129  0.01387  -7.8213E-03  3.5585E-03  8.5928E-03  155.535
    45    3  -0.0559   0.0000  13.0191  0.01387  -1.0011E-02  4.9353E-03  1.1161E-02  153.757
    46    3  -0.0683   0.0000  13.0253  0.01387  -1.2146E-02  6.2765E-03  1.3672E-02  152.672
    47    3  -0.0807   0.0000  13.0314  0.01387  -1.4211E-02  7.5727E-03  1.6102E-02  151.947
    48    3  -0.0931   0.0000  13.0376  0.01387  -1.6191E-02  8.8151E-03  1.8435E-02  151.434
    49    3  -0.1055   0.0000  13.0438  0.01387  -1.8073E-02  9.9952E-03  2.0653E-02  151.055
    50    3  -0.1180   0.0000  13.0500  0.01387  -1.9843E-02  1.1105E-02  2.2739E-02  150.766
    51    3  -0.1304   0.0000  13.0562  0.01387  -2.1488E-02  1.2137E-02  2.4679E-02  150.542
    52    3  -0.1428   0.0000  13.0624  0.01387  -2.2999E-02  1.3084E-02  2.6460E-02  150.365
    53    3  -0.1552   0.0000  13.0686  0.01387  -2.4363E-02  1.3939E-02  2.8069E-02  150.224
    54    3  -0.1676   0.0000  13.0748  0.01387  -2.5573E-02  1.4699E-02  2.9496E-02  150.111
    55    3  -0.1800   0.0000  13.0810  0.01387  -2.6620E-02  1.5356E-02  3.0732E-02  150.021
    56    3  -0.1925   0.0000  13.0872  0.01387  -2.7499E-02  1.5909E-02  3.1769E-02  149.950
    57    3  -0.2049   0.0000  13.0933  0.01387  -2.8203E-02  1.6352E-02  3.2600E-02  149.895
    58    3  -0.2173   0.0000  13.0995  0.01387  -2.8729E-02  1.6685E-02  3.3222E-02  149.854
    59    3  -0.2297   0.0000  13.1057  0.01387  -2.9076E-02  1.6905E-02  3.3633E-02  149.826
    60    3  -0.2421   0.0000  13.1119  0.01387  -2.9245E-02  1.7013E-02  3.3833E-02  149.811
    61    4  -0.2421   0.0000  13.1181  0.01387  -2.9245E-02  1.7013E-02  3.3834E-02  149.811
    62    4  -0.2297   0.0000  13.1243  0.01387  -2.9076E-02  1.6905E-02  3.3633E-02  149.826
    63    4  -0.2173   0.0000  13.1305  0.01387  -2.8730E-02  1.6685E-02  3.3223E-02  149.854
    64    4  -0.2049   0.0000  13.1367  0.01387  -2.8204E-02  1.6352E-02  3.2601E-02  149.895
    65    4  -0.1925   0.0000  13.1429  0.01387  -2.7500E-02  1.5909E-02  3.1770E-02  149.950
    66    4  -0.1800   0.0000  13.1491  0.01387  -2.6622E-02  1.5357E-02  3.0734E-02  150.022
    67    4  -0.1676   0.0000  13.1553  0.01387  -2.5575E-02  1.4699E-02  2.9498E-02  150.112
    68    4  -0.1552   0.0000  13.1614  0.01387  -2.4365E-02  1.3940E-02  2.8071E-02  150.225
    69    4  -0.1428   0.0000  13.1676  0.01387  -2.3001E-02  1.3084E-02  2.6462E-02  150.366
    70    4  -0.1304   0.0000  13.1738  0.01387  -2.1491E-02  1.2137E-02  2.4682E-02  150.544
    71    4  -0.1180   0.0000  13.1800  0.01387  -1.9845E-02  1.1106E-02  2.2742E-02  150.768
    72    4  -0.1055   0.0000  13.1862  0.01387  -1.8076E-02  9.9961E-03  2.0656E-02  151.057
    73    4  -0.0931   0.0000  13.1924  0.01387  -1.6194E-02  8.8161E-03  1.8439E-02  151.436
    74    4  -0.0807   0.0000  13.1986  0.01387  -1.4214E-02  7.5737E-03  1.6106E-02  151.950
    75    4  -0.0683   0.0000  13.2048  0.01387  -1.2149E-02  6.2775E-03  1.3675E-02  152.675
    76    4  -0.0559   0.0000  13.2110  0.01387  -1.0015E-02  4.9364E-03  1.1165E-02  153.760
    77    4  -0.0435   0.0000  13.2172  0.01387  -7.8252E-03  3.5597E-03  8.5968E-03  155.540
    78    4  -0.0310   0.0000  13.2234  0.01387  -5.5974E-03  2.1568E-03  5.9986E-03  158.927
    79    4  -0.0186   0.0000  13.2295  0.01387  -3.3478E-03  7.3763E-04  3.4281E-03  167.574
    80    4  -0.0062   0.0000  13.2357  0.01387  -1.0942E-03 -6.8826E-04  1.2926E-03 -147.829



                                        - - - POWER BUDGET - - -

                                           INPUT POWER   = 2.9315E-02 WATTS
                                           RADIATED POWER= 2.8723E-02 WATTS
                                           STRUCTURE LOSS= 5.9177E-04 WATTS
                                           NETWORK LOSS  = 0.0000E+00 WATTS
                                           EFFICIENCY    =  97.98 PERCENT



                                                - - - RADIATION PATTERNS - - -

  - - ANGLES - -           - POWER GAINS -       - - - POLARIZATION - - -    - - - E(THETA) - - -    - - - E(PHI) - - -
  THETA     PHI        VERT.   HOR.    TOTAL      AXIAL     TILT   SENSE     MAGNITUDE    PHASE      MAGNITUDE    PHASE 
 DEGREES  DEGREES       DB      DB      DB        RATIO     DEG.              VOLTS/M    DEGREES      VOLTS/M    DEGREES
  -90.00    90.00    -177.84 -999.99 -177.84    0.00042     0.01  RIGHT     1.70055E-09   -32.41    7.50607E-13  -103.84
  -85.00    90.00       5.93  -44.52    5.93    0.00221     0.12  RIGHT     2.62400E+00   139.53    7.88085E-03    92.29
  -80.00    90.00       6.31  -49.10    6.31    0.00168    -0.01  LEFT      2.74147E+00   153.68    4.64901E-03  -109.22
  -75.00    90.00       3.08  -33.54    3.08    0.01441     0.18  LEFT      1.89059E+00  -171.28    2.78824E-02   -93.49
  -70.00    90.00       2.31  -29.48    2.31    0.01577     1.17  LEFT      1.72904E+00  -126.91    4.45243E-02   -89.14
  -65.00    90.00       2.83  -28.23    2.84    0.00988     1.50  LEFT      1.83743E+00  -105.87    5.14073E-02   -85.17
  -60.00    90.00       2.90  -27.30    2.90    0.01067     1.66  LEFT      1.85118E+00  -103.42    5.71819E-02   -83.20
  -55.00    90.00       3.00  -25.91    3.01    0.01721     1.80  LEFT      1.87344E+00  -114.85    6.71316E-02   -86.12
  -50.00    90.00       2.33  -25.85    2.33    0.02576     1.68  LEFT      1.73310E+00  -137.77    6.75815E-02   -96.37
  -45.00    90.00      -1.92  -33.38   -1.92    0.01825     1.12  LEFT      1.06247E+00   163.52    2.84254E-02  -153.45
  -40.00    90.00       1.43  -24.33    1.44    0.02487     2.58  LEFT      1.56301E+00    68.87    8.05642E-02    97.79
  -35.00    90.00      -4.70  -32.04   -4.69    0.02189     2.11  LEFT      7.71960E-01   -35.14    3.31337E-02    -4.43
  -30.00    90.00      -2.86  -26.35   -2.84    0.04133     3.01  LEFT      9.53971E-01  -152.64    6.37910E-02  -114.34
  -25.00    90.00      -3.36  -24.90   -3.33    0.04854     3.90  LEFT      9.00292E-01    36.52    7.54020E-02    72.12
  -20.00    90.00      -7.63  -27.40   -7.59    0.05917     4.80  LEFT      5.50452E-01  -163.72    5.65547E-02  -128.27
  -15.00    90.00      -9.78  -26.82   -9.70    0.07076     6.93  LEFT      4.29812E-01   -81.47    6.04435E-02   -50.78
  -10.00    90.00     -10.23  -23.52  -10.03    0.11349    10.45  LEFT      4.08280E-01    44.48    8.84039E-02    77.28
   -5.00    90.00     -15.82  -23.07  -15.07    0.20304    21.07  LEFT      2.14450E-01    70.31    9.31241E-02   102.57
    0.00    90.00    -999.99  -24.34  -24.34    0.00000    90.00  LINEAR    4.10471E-13   113.14    8.04306E-02   113.14
    5.00    90.00     -15.82  -23.07  -15.07    0.20304   -21.07  RIGHT     2.14450E-01  -109.69    9.31241E-02   102.57
   10.00    90.00     -10.23  -23.52  -10.03    0.11349   -10.45  RIGHT     4.08280E-01  -135.52    8.84039E-02    77.28
   15.00    90.00      -9.78  -26.82   -9.70    0.07076    -6.93  RIGHT     4.29812E-01    98.53    6.04435E-02   -50.78
   20.00    90.00      -7.63  -27.40   -7.59    0.05917    -4.80  RIGHT     5.50452E-01    16.28    5.65547E-02  -128.27
   25.00    90.00      -3.36  -24.90   -3.33    0.04854    -3.90  RIGHT     9.00292E-01  -143.48    7.54020E-02    72.12
   30.00    90.00      -2.86  -26.35   -2.84    0.04133    -3.01  RIGHT     9.53971E-01    27.36    6.37910E-02  -114.34
   35.00    90.00      -4.70  -32.04   -4.69    0.02189    -2.11  RIGHT     7.71960E-01   144.86    3.31337E-02    -4.43
   40.00    90.00       1.43  -24.33    1.44    0.02487    -2.58  RIGHT     1.56301E+00  -111.13    8.05642E-02    97.79
   45.00    90.00      -1.92  -33.38   -1.92    0.01825    -1.12  RIGHT     1.06247E+00   -16.48    2.84254E-02  -153.45
   50.00    90.00       2.33  -25.85    2.33    0.02576    -1.68  RIGHT     1.73310E+00    42.23    6.75815E-02   -96.37
   55.00    90.00       3.00  -25.91    3.01    0.01721    -1.80  RIGHT     1.87344E+00    65.15    6.71316E-02   -86.12
   60.00    90.00       2.90  -27.30    2.90    0.01067    -1.66  RIGHT     1.85118E+00    76.58    5.71819E-02   -83.20
   65.00    90.00       2.83  -28.23    2.84    0.00988    -1.50  RIGHT     1.83743E+00    74.13    5.14073E-02   -85.17
   70.00    90.00       2.31  -29.48    2.31    0.01577    -1.17  RIGHT     1.72904E+00    53.09    4.45243E-02   -89.14
   75.00    90.00       3.08  -33.54    3.08    0.01441    -0.18  RIGHT     1.89059E+00     8.72    2.78824E-02   -93.49
   80.00    90.00       6.31  -49.10    6.31    0.00168     0.01  RIGHT     2.74147E+00   -26.32    4.64901E-03  -109.22
   85.00    90.00       5.93  -44.52    5.93    0.00221    -0.12  LEFT      2.62400E+00   -40.47    7.88085E-03    92.29
   90.00    90.00    -177.84 -999.99 -177.84    0.00042    -0.01  LEFT      1.70055E-09   147.59    7.51545E-13  -103.82
 ***** DATA CARD NO. 10   EN   0    37     1  1000 -9.00000E+01  9.00000E+01  5.00000E+00  0.00000E+00  0.00000E+00  0.00000E+00

 RUN TIME =    39.063
